#------------------------------------------------------------------------------
#$Date: 2021-11-03 23:13:27 +0200 (Wed, 03 Nov 2021) $
#$Revision: 270244 $
#$URL: file:///home/coder/svn-repositories/cod/cif/4/51/91/4519104.cif $
#------------------------------------------------------------------------------
#
# This file is available in the Crystallography Open Database (COD),
# http://www.crystallography.net/
#
# All data on this site have been placed in the public domain by the
# contributors.
#
data_4519104
loop_
_publ_author_name
'Liu, Kuan-Ting'
'Chuang, Jia-Yu'
'Jeng, Ru-Jong'
'Leung, Man-Kit'
_publ_section_title
;
 Sustainable Synthesis of Cyclic Carbonates from Terminal Epoxides by a
 Highly Efficient
 CaI<sub>2</sub>/1,3-Bis[tris(hydroxymethyl)-methylamino]-propane
 Catalyst.
;
_journal_issue                   41
_journal_name_full               'ACS omega'
_journal_page_first              27279
_journal_page_last               27287
_journal_paper_doi               10.1021/acsomega.1c04086
_journal_volume                  6
_journal_year                    2021
_chemical_formula_sum            'C19 H20 O4'
_chemical_formula_weight         312.35
_space_group_crystal_system      triclinic
_space_group_IT_number           2
_space_group_name_Hall           '-P 1'
_space_group_name_H-M_alt        'P -1'
_atom_sites_solution_hydrogens   geom
_audit_creation_method           SHELXL-2018/3
_cell_angle_alpha                92.500(8)
_cell_angle_beta                 94.608(7)
_cell_angle_gamma                103.797(7)
_cell_formula_units_Z            2
_cell_length_a                   7.7137(5)
_cell_length_b                   9.9031(11)
_cell_length_c                   10.9047(11)
_cell_measurement_reflns_used    2150
_cell_measurement_temperature    295(2)
_cell_measurement_theta_max      27.7070
_cell_measurement_theta_min      3.4560
_cell_volume                     804.66(13)
_computing_cell_refinement       'CrysAlisPro 1.171.39.46 (Rigaku OD, 2018)'
_computing_data_collection       'CrysAlisPro 1.171.39.46 (Rigaku OD, 2018)'
_computing_data_reduction        'CrysAlisPro 1.171.39.46 (Rigaku OD, 2018)'
_computing_structure_refinement  'SHELXL-2018/3 (Sheldrick, 2018)'
_diffrn_ambient_temperature      295(2)
_diffrn_detector_area_resol_mean 10.2496
_diffrn_measured_fraction_theta_full 0.999
_diffrn_measured_fraction_theta_max 0.963
_diffrn_measurement_device_type  'Xcalibur, Atlas, Gemini'
_diffrn_measurement_method       '\w scans'
_diffrn_radiation_type           MoK\a
_diffrn_radiation_wavelength     0.71073
_diffrn_reflns_av_R_equivalents  0.0681
_diffrn_reflns_av_unetI/netI     0.0837
_diffrn_reflns_Laue_measured_fraction_full 0.999
_diffrn_reflns_Laue_measured_fraction_max 0.963
_diffrn_reflns_limit_h_max       9
_diffrn_reflns_limit_h_min       -10
_diffrn_reflns_limit_k_max       12
_diffrn_reflns_limit_k_min       -12
_diffrn_reflns_limit_l_max       14
_diffrn_reflns_limit_l_min       -9
_diffrn_reflns_number            6563
_diffrn_reflns_point_group_measured_fraction_full 0.999
_diffrn_reflns_point_group_measured_fraction_max 0.963
_diffrn_reflns_theta_full        25.242
_diffrn_reflns_theta_max         27.493
_diffrn_reflns_theta_min         2.924
_diffrn_source                   'fine-focus sealed X-ray tube'
_exptl_absorpt_coefficient_mu    0.090
_exptl_absorpt_correction_T_max  1.00000
_exptl_absorpt_correction_T_min  0.82033
_exptl_absorpt_correction_type   multi-scan
_exptl_absorpt_process_details
; 
CrysAlisPro 1.171.39.46 (Rigaku Oxford Diffraction, 2018) 
Empirical absorption correction using spherical harmonics, 
 implemented in SCALE3 ABSPACK scaling algorithm. 
;
_exptl_crystal_density_diffrn    1.289
_exptl_crystal_description       plate
_exptl_crystal_F_000             332
_exptl_crystal_size_max          0.15
_exptl_crystal_size_mid          0.15
_exptl_crystal_size_min          0.10
_refine_diff_density_max         0.261
_refine_diff_density_min         -0.314
_refine_diff_density_rms         0.080
_refine_ls_extinction_coef       0.031(8)
_refine_ls_extinction_expression Fc^*^=kFc[1+0.001xFc^2^\l^3^/sin(2\q)]^-1/4^
_refine_ls_extinction_method     'SHELXL-2018/3 (Sheldrick 2018)'
_refine_ls_goodness_of_fit_ref   1.087
_refine_ls_hydrogen_treatment    constr
_refine_ls_matrix_type           full
_refine_ls_number_parameters     219
_refine_ls_number_reflns         3545
_refine_ls_number_restraints     0
_refine_ls_restrained_S_all      1.087
_refine_ls_R_factor_all          0.1416
_refine_ls_R_factor_gt           0.0808
_refine_ls_shift/su_max          0.063
_refine_ls_shift/su_mean         0.013
_refine_ls_structure_factor_coef Fsqd
_refine_ls_weighting_details
'w=1/[\s^2^(Fo^2^)+(0.1000P)^2^+0.0586P] where P=(Fo^2^+2Fc^2^)/3'
_refine_ls_weighting_scheme      calc
_refine_ls_wR_factor_gt          0.1835
_refine_ls_wR_factor_ref         0.2458
_reflns_Friedel_coverage         0.000
_reflns_number_gt                1899
_reflns_number_total             3545
_reflns_threshold_expression     'I > 2\s(I)'
_cod_data_source_file            ao1c04086_si_003.cif
_cod_data_source_block           ic20101
_cod_database_code               4519104
_shelx_shelxl_version_number     2018/3
_shelx_space_group_comment
; 
The symmetry employed for this shelxl refinement is uniquely defined 
by the following loop, which should always be used as a source of 
symmetry information in preference to the above space-group names. 
They are only intended as comments. 
;
_shelx_res_file
; 
TITL ic20101 in P-1 
    ic20101.res 
    created by SHELXL-2018/3 at 16:48:26 on 22-Apr-2020 
CELL 0.71073   7.7137   9.9031  10.9047  92.500  94.608 103.797 
ZERR    2.00   0.0005   0.0011   0.0011   0.008   0.007   0.007 
LATT  1 
SFAC C H O 
UNIT 38 40 8 
TEMP 22 
OMIT -3 55 
ACTA 
  
L.S. 4 
BOND 
FMAP 2 
PLAN 20 
  
WGHT    0.100000    0.058600 
EXTI    0.030860 
FVAR       0.51834   0.69128 
O1    3    0.327639    0.617489    0.862540    11.00000    0.04185    0.05216 = 
         0.06518    0.00086    0.01094    0.01389 
O2    3    0.670637    0.402942    0.610129    11.00000    0.06284    0.05812 = 
         0.05133    0.00739    0.01823    0.01962 
PART 1 
O3    3    0.342677    0.868758    1.056064    21.00000    0.10221    0.08600 = 
         0.07689    0.00476   -0.00779    0.02866 
PART 2 
O3'   3    0.344566    0.939167    0.886442   -21.00000    0.13257    0.04142 = 
         0.09077    0.01255   -0.01434    0.01844 
PART 0 
O4    3    0.715946    0.110695    0.527784    11.00000    0.08310    0.07176 = 
         0.08378    0.00366   -0.00553    0.02030 
C1    1    0.266941    0.479724    0.821947    11.00000    0.03994    0.04957 = 
         0.04286    0.00823    0.00673    0.01095 
C2    1    0.087066    0.414933    0.793895    11.00000    0.03831    0.06283 = 
         0.05995    0.00870    0.00482    0.01112 
AFIX  43 
H2A   2    0.000451    0.465340    0.800699    11.00000   -1.20000 
AFIX   0 
C3    1    0.037088    0.275204    0.755802    11.00000    0.04321    0.06532 = 
         0.06820    0.00848    0.00429   -0.00215 
AFIX  43 
H3A   2   -0.083461    0.231297    0.736841    11.00000   -1.20000 
AFIX   0 
C4    1    0.164423    0.201459    0.745946    11.00000    0.06339    0.05203 = 
         0.07328    0.00313    0.00547   -0.00015 
AFIX  43 
H4A   2    0.130842    0.107090    0.721131    11.00000   -1.20000 
AFIX   0 
C5    1    0.344408    0.267905    0.773127    11.00000    0.05859    0.05059 = 
         0.05866    0.01015    0.01403    0.01728 
AFIX  43 
H5A   2    0.430358    0.216978    0.765751    11.00000   -1.20000 
AFIX   0 
C6    1    0.398918    0.407695    0.810830    11.00000    0.03965    0.05243 = 
         0.03727    0.00830    0.00778    0.01348 
C7    1    0.595318    0.478467    0.842840    11.00000    0.04082    0.05881 = 
         0.04689    0.00839    0.00449    0.01630 
AFIX  23 
H7A   2    0.608865    0.523698    0.924949    11.00000   -1.20000 
H7B   2    0.662310    0.407115    0.845900    11.00000   -1.20000 
AFIX   0 
C8    1    0.679481    0.585403    0.756473    11.00000    0.02956    0.05320 = 
         0.04945    0.00601    0.00472    0.01258 
C9    1    0.722956    0.725198    0.790527    11.00000    0.04408    0.06065 = 
         0.06794   -0.00327    0.00760    0.00841 
AFIX  43 
H9A   2    0.699571    0.754565    0.868323    11.00000   -1.20000 
AFIX   0 
C10   1    0.800592    0.823691    0.712403    11.00000    0.05495    0.05488 = 
         0.09863    0.00629    0.01048    0.00447 
AFIX  43 
H10A  2    0.827928    0.918035    0.737106    11.00000   -1.20000 
AFIX   0 
C11   1    0.836836    0.780641    0.598018    11.00000    0.05385    0.07197 = 
         0.08486    0.02928    0.01743    0.01025 
AFIX  43 
H11A  2    0.890106    0.846223    0.545262    11.00000   -1.20000 
AFIX   0 
C12   1    0.794912    0.640897    0.560634    11.00000    0.04981    0.07636 = 
         0.06125    0.02089    0.01701    0.02139 
AFIX  43 
H12A  2    0.819649    0.612307    0.482956    11.00000   -1.20000 
AFIX   0 
C13   1    0.716078    0.543727    0.639081    11.00000    0.03652    0.05569 = 
         0.05311    0.01639    0.00760    0.01632 
C14   1    0.199321    0.693810    0.889996    11.00000    0.04917    0.06691 = 
         0.07180    0.00756    0.01227    0.02550 
AFIX  23 
H14A  2    0.125446    0.648919    0.951633    11.00000   -1.20000 
H14B  2    0.122095    0.698382    0.816357    11.00000   -1.20000 
AFIX   0 
C15   1    0.299755    0.835547    0.937111    11.00000    0.06778    0.06583 = 
         0.10016   -0.01463    0.01072    0.02098 
AFIX  13 
H15   2    0.394189    0.878023    0.885807    11.00000   -1.20000 
AFIX   0 
C16   1    0.215012    0.932523    0.990535    11.00000    0.10376    0.07737 = 
         0.11835   -0.00795    0.00903    0.04544 
AFIX  23 
H16A  2    0.089439    0.901124    1.004236    11.00000   -1.20000 
H16B  2    0.254301    1.029548    0.972503    11.00000   -1.20000 
AFIX   0 
  
C17   1    0.696183    0.351738    0.490705    11.00000    0.05802    0.08184 = 
         0.04192    0.00182    0.01221    0.02603 
AFIX  23 
H17A  2    0.823133    0.368713    0.480341    11.00000   -1.20000 
H17B  2    0.640555    0.398340    0.427903    11.00000   -1.20000 
AFIX   0 
C18   1    0.612687    0.200406    0.479444    11.00000    0.05255    0.07533 = 
         0.06263   -0.00307    0.00198    0.02013 
AFIX  13 
H18A  2    0.484683    0.173856    0.491294    11.00000   -1.20000 
AFIX   0 
C19   1    0.673760    0.107768    0.398214    11.00000    0.08276    0.08212 = 
         0.07719   -0.01329    0.01311    0.01439 
AFIX  23 
H19A  2    0.585749    0.027557    0.359046    11.00000   -1.20000 
H19B  2    0.769571    0.147854    0.348501    11.00000   -1.20000 
  
AFIX   0 
HKLF 4 
  
  
  
  
REM  ic20101 in P-1 
REM wR2 = 0.2458, GooF = S = 1.087, Restrained GooF = 1.087 for all data 
REM R1 = 0.0808 for 1899 Fo > 4sig(Fo) and 0.1416 for all 3545 data 
REM 219 parameters refined using 0 restraints 
  
END 
  
WGHT      0.1145      0.0312 
  
REM Highest difference peak  0.261,  deepest hole -0.314,  1-sigma level  0.080 
Q1    1   0.4390  0.2569  0.3640  11.00000  0.05    0.26 
Q2    1   0.4906  0.4212  0.4166  11.00000  0.05    0.26 
Q3    1   0.7222 -0.0243  0.6091  11.00000  0.05    0.24 
Q4    1   0.2400  0.0578  0.7402  11.00000  0.05    0.24 
Q5    1   0.7512  0.6981  0.9527  11.00000  0.05    0.23 
Q6    1   0.5718  0.2141  0.3248  11.00000  0.05    0.23 
Q7    1   0.6339 -0.0323  0.2825  11.00000  0.05    0.23 
Q8    1   0.4847  0.2032  0.7916  11.00000  0.05    0.23 
Q9    1   0.7374  0.5788  0.6178  11.00000  0.05    0.23 
Q10   1   0.6833  0.5766  0.5641  11.00000  0.05    0.22 
Q11   1  -0.0273  0.5063  0.8516  11.00000  0.05    0.22 
Q12   1   0.5848  0.4392  0.4630  11.00000  0.05    0.21 
Q13   1  -0.0503  0.0591  0.6379  11.00000  0.05    0.21 
Q14   1   0.0592  0.6148  0.8679  11.00000  0.05    0.21 
Q15   1   0.3728  0.0962  0.7950  11.00000  0.05    0.21 
Q16   1   0.6485  0.3864  0.4768  11.00000  0.05    0.20 
Q17   1   0.3898  0.2257  0.4453  11.00000  0.05    0.20 
Q18   1   0.3627  0.6132  0.9469  11.00000  0.05    0.20 
Q19   1   0.4760  0.1134  0.7841  11.00000  0.05    0.20 
Q20   1   0.7387  0.7261  0.5831  11.00000  0.05    0.19 
;
_shelx_res_checksum              8124
_shelx_hkl_file
; 
   0   0   2   26.37    1.36 
   0   0   3  708.46    8.66 
   0   0   4   33.88    2.43 
   0   0   5   95.10    4.39 
   0   0  -5  123.01    4.73 
   0   0   6    4.14    1.06 
   0   0  -6    5.08    1.07 
   0   0   7   19.52    2.36 
   0   0  -7   23.30    2.44 
   0   0  -8   38.03    3.38 
   0   0   8   30.63    3.17 
   0   0   9   10.48    2.03 
   0   0  10    0.84    0.60 
   0   0  11    0.07    0.75 
   0   0  12    0.82    0.68 
   0   0  13   -1.11    0.85 
   0   0  14    0.85    1.09 
   0  -1  13   -1.64    1.06 
   0  -1  12    1.49    0.95 
   0  -1  11    0.20    0.32 
   0  -1  10    3.17    1.30 
   0  -1   9    1.37    0.81 
   0  -1   8    0.21    0.22 
   0   1  -8    0.04    0.36 
   0   1  -7    2.88    0.97 
   0  -1   7    2.90    0.86 
   0  -1   6  144.80    6.14 
   0  -1   5  204.09    6.63 
   0  -1   4  178.56    5.60 
   0  -1   3 2812.48   19.35 
   0  -1   2  207.39    4.46 
   0  -1  -1   12.13    0.68 
   0   1   2  486.80    6.10 
   0   1   3   -0.07    0.19 
   0  -1  -4   86.77    3.59 
   0   1   4  118.86    4.14 
   0   1   5   50.68    3.06 
   0  -1  -5   39.89    2.74 
   0   1   6    7.75    1.32 
   0  -1  -6    8.82    1.43 
   0  -1  -7    1.72    0.68 
   0   1   7    1.86    0.66 
   0   1   8    0.03    0.30 
   0  -1  -8    0.54    0.38 
   0   1   9    2.42    0.87 
   0   1  10   -0.19    0.28 
   0   1  11    2.50    1.09 
   0   1  12    1.78    0.99 
   0   1  13    0.04    0.22 
   0   1  14    1.02    1.38 
   0  -2  13    1.95    1.10 
   0  -2  12    1.33    0.86 
   0  -2  11   26.90    3.73 
   0  -2  10    5.16    1.55 
   0  -2   9   64.84    5.23 
   0  -2   8    2.90    1.11 
   0   2  -8    1.32    0.66 
   0   2  -7    0.64    0.52 
   0  -2   7    0.21    0.35 
   0  -2   6  258.60    8.54 
   0  -2   5   -0.05    0.36 
   0  -2   4  295.26    7.52 
   0   2  -3    1.80    0.53 
   0  -2   3    1.34    0.51 
   0   2  -2    5.82    0.81 
   0  -2   2    6.04    0.87 
   0  -2   1  147.13    3.97 
   0   2  -1  203.45    4.23 
   0  -2   0   54.56    1.95 
   0  -2  -1    4.14    0.45 
   0   2   1    5.42    0.52 
   0  -2  -1    4.56    0.55 
   0   2   2  113.41    2.84 
   0   2   2  108.51    2.92 
   0  -2  -3   19.45    1.65 
   0   2   3   15.77    1.26 
   0   2   3   17.17    1.46 
   0   2   3   18.39    1.27 
   0  -2  -4  115.22    4.32 
   0   2   4  111.94    3.55 
   0   2   5  126.45    4.87 
   0  -2  -5  162.81    5.43 
   0   2   6    0.75    0.36 
   0  -2  -6    0.99    0.48 
   0  -2  -7   10.37    1.88 
   0   2   7   13.45    1.92 
   0  -2  -8   31.09    3.20 
   0   2   8   31.56    3.26 
   0   2   9    7.86    1.66 
   0   2  10    1.15    0.65 
   0   2  11    1.07    0.68 
   0   2  12   -0.83    0.66 
   0   2  13    1.23    1.15 
   0  -3  13    2.40    1.26 
   0  -3  12    0.24    0.38 
   0  -3  11   17.36    3.06 
   0  -3  10   22.92    3.30 
   0  -3   9  108.61    6.82 
   0   3  -8    2.53    1.12 
   0  -3   8    3.58    1.14 
   0  -3   7   33.74    3.34 
   0   3  -7   39.47    3.83 
   0   3  -7   37.55    3.32 
   0   3  -6   41.94    3.65 
   0  -3   6   35.11    3.18 
   0   3  -5   12.87    1.83 
   0  -3   5   11.13    1.65 
   0  -3   4   57.54    3.47 
   0   3  -4   56.03    3.38 
   0  -3   3  148.56    5.03 
   0   3  -3  136.62    4.90 
   0   3  -2    0.37    0.23 
   0  -3   2    0.49    0.24 
   0  -3   2    0.48    0.23 
   0  -3   1    9.27    1.10 
   0  -3   1    8.80    1.10 
   0  -3   0  140.75    3.82 
   0  -3  -1    0.24    0.15 
   0  -3  -1    0.16    0.15 
   0   3   1   -0.08    0.11 
   0   3   1    0.06    0.13 
   0  -3  -2    8.56    0.82 
   0  -3  -2    9.43    0.98 
   0   3   2    9.95    1.10 
   0   3   2    9.52    0.88 
   0   3   3    3.49    0.73 
   0   3   3    4.68    0.70 
   0   3   3    3.76    0.67 
   0   3   4   69.98    3.00 
   0   3   4   79.21    3.74 
   0   3   5    7.90    1.06 
   0   3   5    8.10    1.12 
   0   3   5    9.44    1.35 
   0   3   6    4.71    0.89 
   0   3   6    4.19    1.05 
   0  -3  -6    5.11    1.16 
   0   3   6    4.16    0.91 
   0  -3  -7   52.88    4.08 
   0   3   7   55.99    3.31 
   0  -3  -8    5.02    1.39 
   0   3   8    3.42    1.01 
   0   3   9   -0.69    0.73 
   0   3  10    1.64    0.80 
   0   3  11    2.57    1.13 
   0   3  12   -0.67    0.58 
   0   3  13    0.66    1.14 
   0  -4  13    1.49    1.17 
   0  -4  12    4.93    1.71 
   0  -4  11    4.89    1.61 
   0  -4  10    0.73    0.60 
   0  -4   9    3.26    1.18 
   0  -4   8    1.93    0.84 
   0   4  -7    0.19    0.41 
   0  -4   7   -0.01    0.22 
   0  -4   6    6.41    1.51 
   0   4  -6    6.71    1.40 
   0  -4   5   -0.90    0.48 
   0   4  -5    0.23    0.14 
   0   4  -4   41.11    3.01 
   0  -4   4   14.54    2.03 
   0  -4   3    8.54    1.49 
   0  -4   3   12.84    1.62 
   0   4  -3    9.31    1.32 
   0  -4   2   34.61    2.53 
   0   4  -2   40.20    2.56 
   0  -4   1  148.65    4.94 
   0  -4   1  155.51    5.14 
   0  -4   0  161.68    4.81 
   0   4   1    1.94    0.47 
   0  -4  -1    1.82    0.39 
   0   4   1    1.33    0.44 
   0  -4  -1    1.31    0.56 
   0  -4  -2  643.52    7.93 
   0   4   2  678.14    9.31 
   0   4   3    0.60    0.26 
   0  -4  -3    0.32    0.26 
   0   4   3    0.41    0.23 
   0   4   3   -0.25    0.30 
   0   4   4   49.88    2.84 
   0   4   4   58.75    3.38 
   0   4   4   57.37    2.80 
   0   4   5   41.65    2.84 
   0   4   5   38.65    2.48 
   0   4   6    5.31    1.01 
   0   4   6    5.48    1.19 
   0   4   6    4.72    0.97 
   0   4   7    1.61    0.60 
   0   4   7    1.01    0.52 
   0   4   7    0.01    0.06 
   0   4   8    3.66    1.14 
   0   4   9   21.19    2.83 
   0   4   9   16.38    2.17 
   0   4  10    0.83    0.36 
   0   4  11   -0.95    0.66 
   0   4  12   -1.86    0.96 
   0   4  13    0.75    0.70 
   0  -5  12    0.58    0.58 
   0  -5  11   -1.05    0.61 
   0  -5  10    1.32    0.82 
   0  -5   9    0.89    0.64 
   0  -5   8    0.45    0.36 
   0   5  -7    0.08    0.25 
   0  -5   7   -0.02    0.24 
   0  -5   6    0.49    0.63 
   0   5  -6    0.13    0.45 
   0   5  -6    0.47    0.66 
   0  -5   5    0.08    0.16 
   0   5  -5    0.43    0.53 
   0   5  -4   25.85    2.61 
   0  -5   4   24.18    2.54 
   0  -5   4   23.91    2.81 
   0   5  -3   17.12    1.94 
   0  -5   3   19.60    2.11 
   0  -5   2   66.06    3.74 
   0  -5   2   68.71    4.03 
   0   5  -1  113.93    5.16 
   0  -5   1  129.75    5.14 
   0   5   0   24.21    2.21 
   0  -5   0   28.03    2.48 
   0   5   1    1.45    0.54 
   0  -5  -1    1.12    0.33 
   0  -5  -1    1.02    0.47 
   0   5   2    0.31    0.22 
   0   5   2    0.17    0.14 
   0  -5  -2    0.29    0.27 
   0  -5  -2    0.46    0.23 
   0   5   3    1.86    0.55 
   0  -5  -3    1.71    0.50 
   0   5   4   17.05    2.01 
   0   5   4   15.56    1.53 
   0   5   4   19.40    1.93 
   0   5   5    0.62    0.34 
   0   5   5    0.61    0.38 
   0   5   5    1.46    0.55 
   0   5   6    9.71    1.50 
   0   5   6   12.16    1.84 
   0   5   6   10.16    1.41 
   0   5   7    0.75    0.49 
   0   5   7    2.20    0.74 
   0   5   8    3.35    1.07 
   0   5   8    6.74    1.39 
   0   5   9    2.62    0.91 
   0   5   9    2.79    1.06 
   0   5  10    0.29    0.29 
   0   5  11   -0.31    0.62 
   0   5  12    0.05    0.29 
   0   5  13    1.18    0.83 
   0  -6  12    1.84    1.03 
   0  -6  11    0.14    0.24 
   0  -6  10    3.09    1.30 
   0  -6   9    0.33    0.41 
   0  -6   8    0.13    0.48 
   0  -6   7   50.80    4.84 
   0   6  -7   26.45    3.23 
   0  -6   6    2.30    0.90 
   0   6  -6    1.47    0.70 
   0   6  -5   17.22    2.46 
   0  -6   5   11.43    2.17 
   0   6  -5   18.95    2.54 
   0   6  -4   15.32    2.19 
   0  -6   4   21.94    2.75 
   0  -6   4   23.03    2.66 
   0   6  -4   20.59    2.41 
   0  -6   3   14.64    1.92 
   0   6  -3   10.27    1.75 
   0  -6   3   10.84    1.82 
   0   6  -3   13.01    1.93 
   0  -6   2  105.13    5.29 
   0   6  -2  111.17    5.43 
   0  -6   1   13.57    1.86 
   0   6  -1   12.94    1.93 
   0  -6   1    9.27    0.91 
   0  -6   1   15.66    1.93 
   0  -6   0   47.68    3.57 
   0   6   0   58.24    3.87 
   0  -6   0   57.20    3.59 
   0  -6  -1    1.12    0.36 
   0  -6  -1    1.96    0.71 
   0   6   2    0.49    0.26 
   0   6   2    0.21    0.14 
   0  -6  -2    0.43    0.08 
   0  -6  -2    0.79    0.32 
   0   6   3    3.27    0.77 
   0   6   3    2.48    0.73 
   0  -6  -3    2.81    0.73 
   0  -6  -3    3.82    0.73 
   0   6   4    1.84    0.76 
   0   6   4    2.06    0.78 
   0   6   4    3.46    0.86 
   0   6   5   80.17    4.31 
   0   6   5   57.51    4.22 
   0   6   6   33.97    3.34 
   0   6   6   31.69    2.71 
   0   6   7    4.09    1.17 
   0   6   7    5.87    1.28 
   0   6   8    4.25    1.26 
   0   6   8    4.50    1.16 
   0   6   9   11.58    2.20 
   0   6  10    0.99    0.80 
   0   6  11    0.11    0.65 
   0   6  12    2.68    1.26 
   0  -7  11    7.84    2.40 
   0  -7  10   -2.59    1.29 
   0  -7   9    1.07    0.88 
   0  -7   8   11.08    2.53 
   0  -7   7   17.38    3.03 
   0   7  -6    0.25    0.37 
   0  -7   6    0.58    0.52 
   0   7  -5   22.75    2.80 
   0  -7   5   24.62    3.23 
   0  -7   4    9.42    1.97 
   0   7  -4    9.93    1.81 
   0  -7   4   11.19    1.98 
   0   7  -3    8.90    1.71 
   0  -7   3    7.58    1.45 
   0  -7   2   74.03    4.62 
   0   7  -2   62.76    4.44 
   0  -7   1   25.89    2.80 
   0  -7   1   18.93    2.27 
   0   7  -1   21.03    2.66 
   0  -7   0    0.09    0.21 
   0   7   0    0.25    0.44 
   0  -7   0   -0.06    0.32 
   0  -7  -1   -0.38    0.27 
   0  -7  -1    0.01    0.22 
   0  -7  -2    3.90    0.96 
   0  -7  -2    2.28    0.58 
   0   7   3   -0.34    0.36 
   0   7   3    0.04    0.06 
   0  -7  -3    0.38    0.30 
   0   7   4    3.87    1.04 
   0   7   4    4.02    1.18 
   0  -7  -4    2.26    0.67 
   0   7   4    2.79    0.79 
   0   7   5    0.01    0.43 
   0   7   5    0.21    0.53 
   0   7   5    0.22    0.48 
   0   7   6   15.49    2.30 
   0   7   6   17.59    2.18 
   0   7   7   13.57    2.33 
   0   7   7   14.49    2.08 
   0   7   8    0.11    0.21 
   0   7   9    2.03    0.95 
   0   7  10    2.44    1.03 
   0   7  11    2.71    1.06 
   0   7  12   -1.27    1.00 
   0  -8  10    2.22    1.28 
   0  -8   9   -0.60    0.50 
   0  -8   8   -1.02    0.63 
   0  -8   7    2.43    1.15 
   0  -8   6    4.90    1.54 
   0   8  -6    5.53    1.50 
   0   8  -5    0.70    0.52 
   0  -8   5    0.40    0.53 
   0  -8   4    1.08    0.65 
   0  -8   4    0.73    0.58 
   0  -8   3   27.69    2.95 
   0  -8   3   33.22    3.62 
   0  -8   2   41.25    3.71 
   0  -8   2   36.59    3.55 
   0  -8   1    0.95    0.57 
   0  -8   1    1.98    0.81 
   0  -8   0    0.88    0.33 
   0  -8   0    0.82    0.64 
   0  -8   0    1.77    0.80 
   0  -8  -1    0.38    0.40 
   0  -8  -1    0.56    0.34 
   0  -8  -1    0.72    0.23 
   0  -8  -2    9.80    1.62 
   0  -8  -2   10.83    1.32 
   0  -8  -3    1.69    0.67 
   0   8   4    8.26    1.51 
   0   8   4    6.11    1.27 
   0  -8  -4    9.02    1.54 
   0   8   5    0.02    0.08 
   0   8   5    0.68    0.67 
   0   8   6    3.44    1.44 
   0   8   6    3.75    1.23 
   0   8   7    0.58    0.56 
   0   8   7   -0.28    0.57 
   0   8   8    2.45    1.29 
   0   8   8    1.09    0.72 
   0   8   9    1.61    0.91 
   0   8  10    0.22    0.34 
   0   8  11    1.06    0.83 
   0  -9   9    2.35    1.28 
   0  -9   8    1.69    1.04 
   0  -9   7    0.33    0.44 
   0  -9   6    2.36    1.18 
   0  -9   5    0.58    0.41 
   0  -9   4    1.73    0.98 
   0  -9   4    2.65    1.01 
   0  -9   3    1.87    0.92 
   0  -9   3    4.83    1.42 
   0  -9   3    3.01    0.63 
   0  -9   2    1.46    0.98 
   0  -9   2    0.53    0.62 
   0  -9   1   15.42    2.41 
   0  -9   1   14.56    2.42 
   0  -9   0    9.33    1.98 
   0  -9   0   11.02    1.36 
   0  -9   0   13.53    2.33 
   0  -9  -1   13.18    1.53 
   0  -9  -1   11.57    2.26 
   0  -9  -1   11.61    2.08 
   0  -9  -2   28.69    3.14 
   0  -9  -2   21.23    1.93 
   0  -9  -3    0.29    0.12 
   0  -9  -4    1.55    0.67 
   0   9   5   -0.27    0.63 
   0   9   6    0.32    0.44 
   0   9   7   -0.11    0.66 
   0   9   8    0.83    0.45 
   0   9   9    0.37    0.59 
   0   9  10   -0.54    0.54 
   0 -10   8    0.94    0.42 
   0 -10   8    1.79    1.20 
   0 -10   7    1.55    0.95 
   0 -10   6    0.33    0.44 
   0 -10   5    1.92    0.90 
   0 -10   4    2.06    1.04 
   0 -10   4    0.78    0.45 
   0 -10   3    7.02    1.85 
   0 -10   3    6.90    1.72 
   0 -10   2    2.86    1.20 
   0 -10   2    2.64    1.22 
   0 -10   1    0.63    0.36 
   0 -10   1    0.05    0.30 
   0 -10   1    0.01    0.22 
   0 -10   0    9.26    2.11 
   0 -10   0    6.39    1.09 
   0 -10   0    5.79    1.71 
   0 -10  -1    0.19    0.52 
   0 -10  -1   -0.07    0.32 
   0 -10  -2    0.82    0.35 
   0 -10  -2   -0.03    0.16 
   0 -10  -2    0.74    0.14 
   0 -10  -3    0.09    0.50 
   0 -10  -4    0.50    0.41 
   0  10   4    1.37    0.81 
   0  10   5    1.52    0.89 
   0  10   6   -0.18    0.67 
   0  10   7    2.13    1.31 
   0  10   8   -0.01    0.27 
   0 -11   7   -1.30    0.94 
   0 -11   6    0.21    0.27 
   0 -11   5    0.77    0.73 
   0 -11   4    1.29    1.05 
   0 -11   4    1.31    0.99 
   0 -11   3    0.02    0.12 
   0 -11   3    0.60    0.72 
   0 -11   2    0.27    0.56 
   0 -11   2    0.20    0.60 
   0 -11   1    4.29    1.49 
   0 -11   1    3.93    1.41 
   0 -11   0    0.06    0.17 
   0 -11   0    1.22    1.17 
   0 -11  -1    0.42    0.58 
   0 -11  -2   -0.04    0.36 
   0 -11  -2   -0.15    0.37 
   0 -11  -3    0.91    0.73 
   0 -11  -3   -0.46    0.56 
   0  11   4    1.94    1.02 
   0  11   5   -1.09    0.70 
   0  11   6   -0.51    0.76 
   0  11   7    1.72    0.87 
   0 -12   5    2.05    1.15 
   0 -12   4    0.39    0.76 
   0 -12   3    0.11    0.60 
   0 -12   2    2.01    1.25 
   0 -12   1    0.24    0.77 
   0 -12   0    0.20    0.24 
   0  12   4    2.46    1.23 
   0  12   5    0.06    0.60 
   0 -13   3   -2.90    1.42 
   0 -13   2    1.73    1.12 
   1 -13  -1    1.26    0.62 
   1 -13   0   -0.18    0.78 
   1 -13   1    0.84    0.84 
   1 -13   2    3.77    1.68 
   1 -13   3    2.03    1.04 
  -1  12   5    0.07    0.61 
  -1  12   4    1.19    1.12 
   1 -12  -3    0.48    0.73 
   1 -12  -2   -0.87    0.67 
   1 -12  -1    4.76    1.56 
   1 -12   0    0.14    0.82 
   1 -12   1   -0.10    0.66 
   1 -12   2   -0.26    0.64 
   1 -12   3    2.22    1.18 
   1 -12   4    3.12    1.42 
   1 -12   5   -1.64    1.03 
  -1  11   7   -0.99    0.77 
  -1  11   6    0.24    0.34 
  -1  11   5   -0.32    1.04 
   1 -11  -4    0.13    0.24 
   1 -11  -3    1.12    1.01 
   1 -11  -3    2.75    1.15 
   1 -11  -2   -0.27    0.35 
   1 -11  -2    0.20    0.51 
   1 -11  -1    1.58    0.87 
   1 -11  -1   -0.27    0.23 
   1 -11   0    0.21    0.34 
   1 -11   0   -0.32    0.45 
   1 -11   1    0.70    0.72 
   1 -11   1    0.89    0.85 
   1 -11   2    0.08    0.33 
   1 -11   2    0.17    0.69 
   1 -11   3    2.63    1.12 
   1 -11   3    3.38    1.32 
   1 -11   4   -0.15    0.50 
   1 -11   5    0.71    0.46 
   1 -11   6    1.63    1.02 
   1 -11   7    0.70    0.61 
  -1  10   9    1.21    0.77 
  -1  10   8   -0.82    0.91 
  -1  10   7   -0.25    0.37 
  -1  10   6    1.05    0.92 
  -1  10   5    0.41    0.84 
   1 -10  -4    0.90    0.83 
   1 -10  -3    1.29    0.72 
   1 -10  -2   -0.09    0.23 
   1 -10  -2    0.10    0.35 
   1 -10  -1    1.03    0.73 
   1 -10  -1    4.68    1.42 
   1 -10   0    0.87    0.37 
   1 -10   0    0.87    0.77 
   1 -10   1   10.90    2.32 
   1 -10   1    9.43    1.77 
   1 -10   1    7.37    0.93 
   1 -10   2    1.66    0.84 
   1 -10   2    1.66    0.82 
   1 -10   3    1.82    0.99 
   1 -10   3    1.32    0.90 
   1 -10   4   -0.19    0.90 
   1 -10   5    3.34    1.45 
   1 -10   6    0.24    0.47 
   1 -10   7    0.84    0.97 
   1 -10   8   -0.86    0.88 
  -1   9  10    0.69    0.78 
  -1   9   9    2.40    1.15 
  -1   9   8   -0.65    0.91 
  -1   9   7    1.16    0.75 
  -1   9   6   -0.34    0.60 
  -1   9   5    0.14    0.72 
   1  -9  -4    5.39    1.39 
   1  -9  -3    3.39    1.07 
   1  -9  -2    6.83    1.63 
   1  -9  -1    0.38    0.49 
   1  -9  -1    0.28    0.25 
   1  -9   0    1.82    0.93 
   1  -9   0    1.93    0.46 
   1  -9   0    1.92    0.83 
   1  -9   1   -0.21    0.20 
   1  -9   1    0.03    0.31 
   1  -9   1    0.57    0.55 
   1  -9   2    0.23    0.39 
   1  -9   2    0.48    0.63 
   1  -9   3    9.82    1.77 
   1  -9   3    9.34    1.96 
   1  -9   4   13.67    2.52 
   1  -9   5    6.20    1.69 
   1  -9   6   -1.08    0.76 
   1  -9   7   -0.67    0.64 
   1  -9   7   -0.29    0.49 
   1  -9   8    0.62    0.63 
   1  -9   9    0.41    0.24 
  -1   8  11    1.79    1.12 
  -1   8  10    2.19    1.10 
  -1   8   9    1.26    0.80 
  -1   8   8    0.18    0.70 
  -1   8   7    0.45    0.16 
  -1   8   6   -0.58    0.76 
  -1   8   5    2.57    0.88 
  -1   8   5    2.26    0.91 
  -1   8   5    3.32    1.03 
  -1   8   4   23.11    2.65 
  -1   8   4   31.76    2.49 
   1  -8  -4   29.16    3.02 
  -1   8   3    0.53    0.24 
   1  -8  -3    1.51    0.69 
   1  -8  -2    2.99    0.97 
  -1   8   2    2.85    0.90 
   1  -8  -1    5.34    1.26 
   1  -8  -1    4.59    0.66 
   1  -8  -1    5.01    1.34 
   1  -8   0    4.82    1.15 
   1  -8   0    5.06    0.69 
   1  -8   0    3.20    1.06 
   1  -8   1    1.58    0.92 
   1  -8   1    2.00    0.71 
   1  -8   2    9.12    1.44 
   1  -8   2    6.40    1.51 
   1  -8   3   26.71    3.19 
   1  -8   3   23.05    2.53 
   1  -8   4   40.54    4.24 
  -1   8  -5   16.25    2.30 
   1  -8   5   19.33    2.90 
   1  -8   6    6.27    1.74 
  -1   8  -6    6.09    1.46 
   1  -8   7    1.95    1.02 
   1  -8   8    1.79    1.03 
   1  -8   9   -0.56    0.43 
   1  -8  10   -0.03    0.69 
  -1   7  11    1.64    1.01 
  -1   7  10    1.27    0.65 
  -1   7   9   -0.64    0.70 
  -1   7   8    0.28    0.31 
  -1   7   7    5.77    1.51 
  -1   7   6   12.42    2.29 
  -1   7   6   11.30    1.51 
  -1   7   5    0.42    0.43 
  -1   7   5   -0.36    0.34 
  -1   7   4    5.44    1.22 
   1  -7  -4    8.04    1.49 
  -1   7   3    1.20    0.52 
  -1   7   3    0.94    0.38 
   1  -7  -3    0.94    0.52 
   1  -7  -2    0.23    0.22 
  -1   7   2   -0.27    0.32 
  -1   7   1    5.04    1.17 
   1  -7  -1   10.19    0.91 
   1  -7  -1    9.15    1.87 
  -1   7   0   10.93    1.86 
   1  -7   0   12.09    0.97 
   1  -7   0   11.26    1.57 
   1  -7   0   11.87    1.93 
  -1   7  -1   30.92    3.34 
   1  -7   1   30.06    2.98 
   1  -7   1   29.64    2.44 
  -1   7  -2    4.67    1.21 
   1  -7   2    4.23    1.17 
   1  -7   2    4.80    0.96 
  -1   7  -3    0.34    0.55 
   1  -7   3    0.47    0.47 
   1  -7   3   -0.16    0.24 
   1  -7   4   13.49    2.22 
  -1   7  -4   16.08    1.99 
   1  -7   5    8.23    1.82 
  -1   7  -5    7.55    1.53 
  -1   7  -6    0.69    0.34 
   1  -7   6    1.36    0.65 
  -1   7  -7    0.18    0.38 
   1  -7   7   -0.83    0.85 
   1  -7   8    6.96    1.99 
   1  -7   9    8.23    2.20 
   1  -7  10    0.58    0.47 
   1  -7  11    0.83    1.12 
  -1   6  12    0.08    0.90 
  -1   6  11   -0.71    0.92 
  -1   6  10    0.99    0.80 
  -1   6   9   -0.58    0.26 
  -1   6   8    0.44    0.58 
  -1   6   7   12.78    2.06 
  -1   6   7   16.14    2.54 
  -1   6   7   17.75    1.97 
  -1   6   6   61.08    4.57 
  -1   6   6   57.31    4.42 
  -1   6   5    3.10    0.99 
  -1   6   5    2.15    0.84 
  -1   6   5    4.32    0.83 
  -1   6   4    0.50    0.31 
   1  -6  -4    0.48    0.29 
  -1   6   4   -0.23    0.40 
  -1   6   4    0.07    0.09 
  -1   6   3    0.07    0.12 
   1  -6  -3   -0.02    0.14 
   1  -6  -2   34.50    2.85 
  -1   6   2   39.86    2.99 
   1  -6  -1   12.34    0.93 
  -1   6   1   15.98    1.86 
   1  -6  -1   14.31    2.12 
   1  -6   0   -0.02    0.17 
   1  -6   0    0.06    0.08 
   1  -6   1   11.39    1.72 
   1  -6   1   10.82    1.32 
   1  -6   2   24.50    2.59 
   1  -6   2   20.63    1.84 
   1  -6   3   10.44    1.81 
  -1   6  -3    8.58    1.28 
  -1   6  -4    0.01    0.27 
   1  -6   4    0.04    0.47 
  -1   6  -4   -0.04    0.25 
   1  -6   5   -0.72    0.52 
  -1   6  -5   -0.06    0.35 
   1  -6   6    1.85    0.89 
  -1   6  -6    1.18    0.65 
   1  -6   7   -0.35    0.51 
  -1   6  -7    0.42    0.50 
   1  -6   8    1.52    0.78 
   1  -6   9   -1.76    0.97 
   1  -6  10    2.28    1.14 
   1  -6  11   -1.20    0.86 
   1  -6  12   -0.53    0.44 
  -1   5  12    1.52    1.00 
  -1   5  11    0.18    0.61 
  -1   5  10    0.16    0.22 
  -1   5   9    6.60    1.66 
  -1   5   8    0.67    0.54 
  -1   5   7  105.98    5.68 
  -1   5   7  109.33    4.84 
  -1   5   6    3.96    1.01 
  -1   5   6    2.84    0.88 
  -1   5   6    3.21    0.77 
  -1   5   5    6.03    0.95 
  -1   5   5    5.75    1.19 
  -1   5   5    3.59    1.15 
  -1   5   4    9.09    1.05 
  -1   5   4   12.23    1.73 
   1  -5  -3    6.03    1.11 
  -1   5   3   10.80    1.52 
  -1   5   3    7.11    0.83 
   1  -5  -2  162.20    5.80 
  -1   5   2  118.40    4.74 
   1  -5  -1   16.42    0.94 
  -1   5   1   13.99    1.65 
   1  -5  -1   20.83    2.32 
  -1   5   0  123.84    4.96 
   1  -5   0  116.50    2.39 
   1  -5   0  129.40    5.36 
   1  -5   1    7.22    1.26 
   1  -5   1    7.65    0.97 
  -1   5  -2   29.70    2.10 
   1  -5   2   33.87    2.84 
   1  -5   2   32.85    2.21 
  -1   5  -3   13.91    1.56 
   1  -5   3   15.25    2.00 
  -1   5  -4    6.94    1.19 
   1  -5   4    6.19    1.40 
  -1   5  -5   -0.02    0.23 
   1  -5   5    0.61    0.33 
  -1   5  -6    4.83    1.16 
   1  -5   6    8.42    1.77 
  -1   5  -6    5.92    1.46 
   1  -5   7    0.50    0.29 
  -1   5  -7   -0.55    0.74 
  -1   5  -8    0.78    0.69 
   1  -5   8    0.68    0.53 
   1  -5   9    0.02    0.49 
   1  -5  10    0.15    0.28 
   1  -5  11    2.54    1.17 
   1  -5  12    0.52    0.53 
  -1   4  13   -1.23    0.85 
  -1   4  12    1.05    0.76 
  -1   4  11    1.98    1.11 
  -1   4  10    0.93    0.84 
  -1   4   9   13.40    2.38 
  -1   4   8    2.29    0.81 
  -1   4   8    7.02    1.57 
  -1   4   7    1.89    0.60 
  -1   4   7    2.05    0.80 
  -1   4   7    0.51    0.37 
  -1   4   6    4.07    1.07 
  -1   4   6    5.30    0.91 
  -1   4   6    4.29    1.04 
  -1   4   5   64.73    2.97 
  -1   4   5   58.82    3.62 
  -1   4   5   72.62    4.33 
  -1   4   4   13.87    1.76 
  -1   4   4   17.41    1.39 
  -1   4   4   14.38    1.67 
   1  -4  -3   16.22    1.63 
  -1   4   3   13.08    1.08 
  -1   4   3   14.99    1.75 
  -1   4   2   81.03    2.33 
   1  -4  -2   96.00    4.06 
   1  -4  -1    1.92    0.55 
   1  -4   0   46.26    1.20 
   1  -4   0   53.42    3.06 
   1  -4   1    3.85    0.50 
   1  -4   1    4.13    0.60 
   1  -4   1    4.88    0.95 
   1  -4   2    2.85    0.71 
   1  -4   2    4.51    0.94 
  -1   4  -2    2.99    0.61 
   1  -4   3   15.59    1.95 
  -1   4  -3   11.18    1.29 
   1  -4   4   12.41    1.81 
  -1   4  -4   10.90    1.42 
  -1   4  -5  177.14    6.71 
   1  -4   5  166.17    6.79 
  -1   4  -6   18.44    2.38 
   1  -4   6   18.51    2.42 
  -1   4  -6   24.20    2.86 
  -1   4  -7    1.12    0.63 
   1  -4   7    2.17    0.94 
  -1   4  -7    1.05    0.82 
   1  -4   8   19.74    2.76 
  -1   4  -8   16.97    2.66 
   1  -4   9    1.54    0.81 
   1  -4  10    0.10    0.23 
   1  -4  11    3.59    1.39 
   1  -4  12    2.13    1.13 
   1  -4  13   -0.27    0.60 
  -1   3  13    0.66    0.74 
  -1   3  12    0.25    0.64 
  -1   3  11    2.87    1.16 
  -1   3  10   -0.26    0.48 
  -1   3   9    2.80    1.11 
  -1   3   8   20.92    2.68 
  -1   3   7   16.26    2.18 
   1  -3  -7   15.94    2.34 
   1  -3  -6   43.63    3.59 
  -1   3   6   45.76    3.16 
  -1   3   6   37.50    3.19 
  -1   3   5    6.14    1.10 
  -1   3   5    5.67    1.13 
  -1   3   4    2.00    0.59 
  -1   3   4    1.26    0.61 
  -1   3   3   29.43    2.22 
  -1   3   3   33.32    2.48 
  -1   3   2   22.79    1.08 
   1  -3  -2   16.85    1.56 
  -1   3   1    0.75    0.16 
   1  -3  -1    0.68    0.32 
   1  -3   0  200.92    5.18 
   1  -3   1   65.54    1.99 
  -1   3  -1   74.03    2.05 
  -1   3  -2    0.69    0.24 
   1  -3   2    1.10    0.47 
  -1   3  -3    3.22    0.67 
   1  -3   3    0.94    0.42 
   1  -3   4   64.67    3.59 
   1  -3   5   27.72    2.58 
  -1   3  -6   -0.25    0.26 
   1  -3   6    0.63    0.37 
   1  -3   7    0.50    0.23 
  -1   3  -7    1.42    0.64 
   1  -3   8   13.96    2.23 
   1  -3   9   16.41    2.59 
   1  -3  10   16.33    2.74 
   1  -3  11   10.85    2.44 
   1  -3  12   -0.50    0.65 
   1  -3  13    0.75    0.71 
  -1   2  13    2.89    1.34 
  -1   2  12    1.24    0.80 
  -1   2  11    4.81    1.52 
  -1   2  10    1.35    0.73 
  -1   2   9    6.69    1.62 
  -1   2   8    5.00    1.27 
   1  -2  -8    5.53    1.32 
  -1   2   7    4.25    1.08 
   1  -2  -7    3.21    1.16 
   1  -2  -6   12.30    1.81 
  -1   2   6   16.09    1.98 
  -1   2   5   60.12    3.54 
  -1   2   4    1.25    0.47 
  -1   2   3   13.48    1.39 
   1  -2  -2   52.60    2.36 
  -1   2   2   60.81    2.79 
   1  -2  -1    0.24    0.10 
  -1   2   0  650.88    6.47 
   1  -2   0  624.58    8.08 
   1  -2   1   21.82    1.51 
   1  -2   1   31.60    1.79 
   1  -2   2    6.46    0.87 
   1  -2   3   33.29    2.20 
   1  -2   4   65.40    3.43 
  -1   2  -4   60.04    3.43 
   1  -2   5   59.95    3.62 
  -1   2  -5   56.68    3.56 
   1  -2   6    9.90    1.61 
  -1   2  -6   12.12    1.81 
   1  -2   7   41.87    3.53 
  -1   2  -7   38.94    3.32 
  -1   2  -8   23.36    2.78 
   1  -2   8   25.92    2.98 
   1  -2   9   22.35    2.97 
   1  -2  10   19.65    2.97 
   1  -2  11    3.79    1.35 
   1  -2  12    0.21    0.47 
   1  -2  13    1.76    1.04 
  -1   1  13   -0.81    0.71 
  -1   1  12   -0.39    0.47 
  -1   1  11    5.34    1.61 
  -1   1  10    4.33    1.42 
  -1   1   9    4.29    1.31 
  -1   1   8   20.22    2.53 
   1  -1  -8   18.00    2.43 
  -1   1   7   69.12    4.44 
   1  -1  -7  102.39    5.35 
  -1   1   6  147.62    5.97 
  -1   1   5  256.80    7.20 
  -1   1   4    2.67    0.59 
  -1   1   3   77.65    3.12 
  -1   1   2  500.63    6.97 
   1  -1  -1    0.24    0.23 
  -1   1   0   10.87    0.88 
   1  -1   1   13.52    0.72 
   1  -1   2 2309.68   14.46 
   1  -1   3  216.76    5.06 
  -1   1  -3  194.68    4.93 
  -1   1  -4  100.54    4.17 
   1  -1   4  110.38    4.26 
   1  -1   5  112.34    4.85 
  -1   1  -5   94.56    4.16 
  -1   1  -6   15.39    1.86 
   1  -1   6   16.27    2.06 
   1  -1   7    7.49    1.48 
  -1   1  -7    7.37    1.38 
   1  -1   8    1.36    0.69 
  -1   1  -8    0.13    0.25 
   1  -1   9    0.17    0.26 
   1  -1  10    0.88    0.62 
   1  -1  11    0.07    0.19 
   1  -1  12    1.23    0.81 
   1  -1  13    0.94    0.75 
   1  -1  14    2.61    1.31 
  -1   0  13    4.11    1.65 
  -1   0  12    0.84    0.71 
  -1   0  11    0.05    0.17 
  -1   0  10    1.27    0.77 
  -1   0   9    9.69    1.91 
   1   0  -8    0.79    0.50 
  -1   0   8    0.33    0.25 
  -1   0   7    1.57    0.73 
  -1   0   6   11.27    1.63 
  -1   0   5   15.69    1.74 
  -1   0   4   60.68    3.19 
  -1   0   3  244.41    5.49 
   1   0  -2 1635.12   14.11 
  -1   0   2 1633.57   11.94 
  -1   0   1   13.16    0.80 
   1   0   1   11.75    0.79 
   1   0   2  403.44    5.34 
  -1   0  -2  427.21    5.11 
   1   0   2  400.84    5.17 
   1   0   3   36.42    1.91 
  -1   0  -3   42.99    2.05 
   1   0   3   36.84    1.83 
   1   0   4   62.31    2.94 
  -1   0  -4   68.00    3.00 
   1   0   5   13.97    1.61 
  -1   0  -5   11.74    1.43 
   1   0   6   43.72    3.18 
  -1   0  -6   69.89    3.84 
   1   0   7    8.55    1.54 
  -1   0  -7    4.86    1.09 
  -1   0  -8    1.00    0.54 
   1   0   8    2.19    0.86 
   1   0   9    4.21    1.22 
   1   0  10    1.73    0.76 
   1   0  11    2.45    1.09 
   1   0  12    0.12    0.71 
   1   0  13    1.87    1.07 
   1   0  14    0.29    0.90 
  -1  -1  13    0.06    0.30 
  -1  -1  12    2.23    1.11 
  -1  -1  11    0.69    0.61 
  -1  -1  10   -0.24    0.25 
  -1  -1   9   86.93    6.03 
   1   1  -8   17.70    2.43 
  -1  -1   8   18.76    2.67 
  -1  -1   7   83.80    5.14 
  -1  -1   6   40.09    3.25 
  -1  -1   5   81.87    4.20 
   1   1  -5   99.43    5.22 
  -1  -1   4  497.13    9.40 
   1   1  -4  397.00    9.59 
   1   1  -3   16.31    1.67 
  -1  -1   3   16.58    1.53 
   1   1  -2 1823.61   15.76 
  -1  -1   2 1794.85   13.53 
  -1  -1   1    1.48    0.30 
   1   1  -1    1.74    0.42 
  -1  -1   0   92.45    3.17 
  -1  -1  -1  196.71    5.47 
   1   1   2  143.80    2.82 
   1   1   2  144.01    3.51 
  -1  -1  -2  129.68    2.77 
   1   1   3   25.40    1.65 
  -1  -1  -3   30.83    1.68 
  -1  -1  -4   66.15    2.97 
   1   1   4   60.35    2.75 
   1   1   4   54.98    2.72 
   1   1   5   30.40    2.13 
   1   1   5   30.96    2.29 
   1   1   6  108.64    4.72 
   1   1   6   95.52    4.09 
   1   1   7   35.44    2.67 
  -1  -1  -7   29.97    2.79 
   1   1   7   35.89    3.05 
   1   1   8   11.30    1.81 
  -1  -1  -8   10.68    1.79 
   1   1   9    0.51    0.37 
   1   1  10    1.75    0.85 
   1   1  11    3.99    1.37 
   1   1  12    1.04    0.75 
   1   1  13    1.11    0.83 
   1   1  14    1.40    1.13 
  -1  -2  13    3.67    1.55 
  -1  -2  12   10.94    2.56 
  -1  -2  11    1.73    0.98 
  -1  -2  10   -0.84    0.65 
  -1  -2   9  107.91    6.99 
  -1  -2   8  100.73    6.30 
  -1  -2   7  145.15    7.04 
   1   2  -7  133.79    7.32 
  -1  -2   6    0.54    0.50 
   1   2  -6    0.31    0.57 
   1   2  -5   93.02    5.17 
  -1  -2   5   85.26    4.60 
   1   2  -4  434.75    9.52 
  -1  -2   4  177.32    6.15 
  -1  -2   3   25.04    1.97 
   1   2  -3   22.77    2.11 
  -1  -2   2  253.91    5.54 
   1   2  -2  311.51    7.13 
  -1  -2   1    3.43    0.64 
   1   2  -1    7.24    1.17 
   1   2   0    4.24    0.56 
  -1  -2   0    4.18    0.75 
  -1  -2  -1    7.00    1.07 
  -1  -2  -1    5.25    0.47 
   1   2   1    5.08    0.93 
   1   2   2  166.74    2.76 
   1   2   2  139.11    5.44 
   1   2   3    6.24    0.86 
   1   2   3    9.68    0.79 
   1   2   3    7.38    0.90 
   1   2   4   52.33    2.67 
  -1  -2  -4   58.26    2.93 
   1   2   4   52.33    2.73 
   1   2   5    0.64    0.41 
   1   2   5    0.19    0.31 
  -1  -2  -5    0.52    0.37 
   1   2   6    6.49    1.10 
  -1  -2  -6    3.70    1.07 
   1   2   6    8.15    1.32 
   1   2   7   16.37    1.98 
  -1  -2  -7   13.96    2.02 
   1   2   7   20.48    2.08 
  -1  -2  -8    3.36    1.02 
   1   2   8    3.24    0.94 
   1   2   9    5.03    1.26 
   1   2  10    0.80    0.55 
   1   2  11    4.60    1.44 
   1   2  12    1.39    0.86 
   1   2  13    0.43    0.66 
   1   2  14    0.90    0.89 
  -1  -3  13    4.47    1.72 
  -1  -3  12    0.91    0.89 
  -1  -3  11   15.00    2.89 
  -1  -3  10    5.77    1.79 
  -1  -3   9   18.42    2.86 
  -1  -3   8   20.80    2.89 
  -1  -3   7   15.70    2.30 
   1   3  -7   14.73    2.33 
   1   3  -7   16.59    2.28 
  -1  -3   6    5.83    1.32 
   1   3  -6    6.86    1.43 
  -1  -3   5   36.03    3.02 
   1   3  -5   42.95    3.46 
   1   3  -4   38.42    3.05 
  -1  -3   4   56.35    3.49 
   1   3  -3   57.53    3.54 
  -1  -3   3   43.04    2.80 
   1   3  -2   69.77    3.69 
   1   3  -2   68.25    3.20 
  -1  -3   1   13.64    1.37 
   1   3  -1   12.70    1.26 
   1   3   0  538.69    8.07 
  -1  -3   0  560.44    7.03 
   1   3   1   25.46    2.15 
  -1  -3  -1   22.17    1.30 
   1   3   2  253.64    4.03 
   1   3   2  231.38    6.95 
  -1  -3  -2  245.72    3.91 
  -1  -3  -3    1.05    0.39 
   1   3   3    1.16    0.39 
   1   3   3    1.04    0.43 
   1   3   3    1.36    0.32 
   1   3   4    5.31    0.90 
   1   3   4    5.33    0.89 
   1   3   4    4.32    0.69 
   1   3   5    6.37    1.08 
   1   3   5    6.23    1.03 
   1   3   5    1.97    0.55 
   1   3   6   20.88    2.04 
   1   3   6   20.45    2.11 
   1   3   7    2.06    0.73 
  -1  -3  -7    1.61    0.68 
   1   3   8    0.66    0.40 
  -1  -3  -8    1.36    0.74 
   1   3   9   -0.19    0.25 
   1   3  10    4.09    1.27 
   1   3  11    0.89    0.61 
   1   3  12    1.04    0.90 
   1   3  13    0.01    0.51 
  -1  -4  13    4.34    1.72 
  -1  -4  12   -1.19    0.99 
  -1  -4  11    4.60    1.61 
  -1  -4  10    6.60    1.83 
  -1  -4   9   -0.07    0.10 
  -1  -4   8    4.75    1.37 
  -1  -4   7    0.49    0.57 
   1   4  -7    0.38    0.47 
  -1  -4   6    3.94    1.09 
   1   4  -6    1.97    0.89 
   1   4  -6    3.74    1.04 
  -1  -4   5   20.49    2.42 
   1   4  -5   15.14    2.13 
   1   4  -5   22.75    2.62 
  -1  -4   4    4.47    1.17 
   1   4  -4    3.59    0.95 
  -1  -4   4    5.37    1.12 
   1   4  -4    3.87    1.02 
  -1  -4   3    3.80    0.96 
  -1  -4   3    2.93    0.78 
   1   4  -3    5.08    1.02 
   1   4  -3    3.47    0.93 
  -1  -4   2    7.80    1.31 
   1   4  -2    8.18    1.19 
  -1  -4   2    8.74    1.43 
   1   4  -2    9.91    1.47 
   1   4  -1    1.02    0.40 
  -1  -4   1    0.68    0.56 
  -1  -4   0  254.82    6.78 
   1   4   0  246.16    6.47 
   1   4   1   -0.32    0.39 
  -1  -4  -1    0.30    0.15 
  -1  -4  -2   75.35    2.71 
   1   4   2   77.78    2.75 
  -1  -4  -2   85.82    3.43 
   1   4   3    0.19    0.18 
  -1  -4  -3    0.11    0.19 
   1   4   3    0.11    0.05 
   1   4   3   -0.03    0.37 
   1   4   4   -0.03    0.15 
   1   4   4   -0.04    0.08 
  -1  -4  -4   -0.35    0.29 
   1   4   5    6.20    0.91 
   1   4   5    9.61    1.40 
   1   4   5    8.57    1.26 
   1   4   6    2.46    0.75 
   1   4   6    2.62    0.67 
   1   4   6    2.50    0.74 
   1   4   7    1.14    0.47 
   1   4   7    0.13    0.15 
   1   4   8   11.04    1.56 
   1   4   8   15.59    2.22 
   1   4   9    0.59    0.44 
   1   4   9    0.63    0.19 
   1   4  10    0.02    0.11 
   1   4  11   -0.42    0.43 
   1   4  12    1.21    0.75 
   1   4  13    0.78    0.92 
  -1  -5  12    0.43    0.54 
  -1  -5  11   -1.36    1.00 
  -1  -5  10    0.74    0.63 
  -1  -5   9    0.75    0.91 
  -1  -5   8    0.29    0.15 
  -1  -5   7    1.25    0.73 
  -1  -5   6    0.47    0.09 
   1   5  -6    0.62    0.39 
   1   5  -6   -0.09    0.51 
  -1  -5   5   26.37    3.12 
   1   5  -5   21.04    2.69 
   1   5  -5   25.72    2.94 
   1   5  -4    1.00    0.56 
  -1  -5   4    0.86    0.69 
   1   5  -4    1.23    0.60 
  -1  -5   4    0.35    0.14 
   1   5  -3   49.72    3.51 
   1   5  -3   51.01    3.78 
  -1  -5   3   48.45    3.80 
  -1  -5   3   43.57    3.66 
   1   5  -2   14.13    1.74 
  -1  -5   2   15.59    2.06 
  -1  -5   2   14.89    1.87 
  -1  -5   1    0.19    0.18 
  -1  -5   1    0.02    0.08 
  -1  -5   1   -0.10    0.12 
  -1  -5   0  203.02    6.30 
   1   5   0  198.15    6.45 
  -1  -5   0  183.16    5.42 
   1   5   1    2.08    0.65 
  -1  -5  -1    1.01    0.46 
  -1  -5  -1    1.30    0.44 
  -1  -5  -2   37.81    2.43 
   1   5   2   30.97    2.76 
  -1  -5  -3    3.23    0.74 
  -1  -5  -3    3.56    0.66 
   1   5   3    2.88    0.59 
   1   5   3    3.26    0.96 
   1   5   4   -0.10    0.20 
   1   5   4   -0.05    0.20 
   1   5   4    0.17    0.11 
  -1  -5  -4   -0.20    0.16 
   1   5   5    5.93    1.02 
   1   5   5    6.21    1.60 
   1   5   5    7.25    1.41 
   1   5   6    3.22    0.88 
   1   5   6    4.16    1.04 
   1   5   7   54.75    3.42 
   1   5   7   56.15    4.03 
   1   5   8   16.90    1.95 
   1   5   8   15.95    2.29 
   1   5   9    3.52    1.21 
   1   5  10   -0.31    0.53 
   1   5  11   -0.57    0.41 
   1   5  12    1.55    0.87 
   1   5  13   -0.25    0.26 
  -1  -6  12    1.26    0.92 
  -1  -6  11   -0.08    0.57 
  -1  -6  10    5.46    1.71 
  -1  -6   9    2.82    1.18 
  -1  -6   8    6.06    1.59 
  -1  -6   7    3.45    1.23 
  -1  -6   6   16.02    2.63 
   1   6  -6    9.82    2.10 
  -1  -6   5    4.65    1.40 
   1   6  -5    2.05    0.86 
  -1  -6   5    2.75    1.05 
   1   6  -5    2.73    1.07 
  -1  -6   4    6.37    1.51 
   1   6  -4    9.49    1.73 
   1   6  -4    5.59    1.41 
  -1  -6   4    5.67    1.42 
   1   6  -3   14.77    2.08 
  -1  -6   3   14.30    2.22 
  -1  -6   3   13.07    1.98 
   1   6  -2   28.02    2.77 
  -1  -6   2   42.67    3.67 
  -1  -6   1   -0.65    0.38 
  -1  -6   1    0.18    0.41 
   1   6  -1    0.33    0.28 
  -1  -6   1    0.05    0.28 
  -1  -6   0    3.87    0.85 
  -1  -6   0    4.73    0.98 
   1   6   0    2.65    0.79 
  -1  -6   0    4.26    1.22 
  -1  -6  -1    4.17    0.92 
  -1  -6  -1    3.91    0.81 
   1   6   1    4.31    0.98 
  -1  -6  -2   -0.02    0.21 
  -1  -6  -2    0.23    0.27 
  -1  -6  -3    1.96    0.61 
   1   6   3    1.47    0.67 
  -1  -6  -3    1.57    0.52 
   1   6   4    4.04    1.19 
  -1  -6  -4    4.91    0.98 
   1   6   4    6.16    1.23 
   1   6   4    5.09    0.89 
   1   6   5    3.31    1.14 
   1   6   5    5.98    0.98 
   1   6   5    3.87    1.00 
   1   6   6    1.09    0.55 
   1   6   6    0.30    0.31 
   1   6   6    0.99    0.48 
   1   6   7    1.20    1.10 
   1   6   7    0.12    0.18 
   1   6   7    0.03    0.40 
   1   6   8    0.02    0.09 
   1   6   9    3.67    1.19 
   1   6  10   -0.29    0.57 
   1   6  11    0.58    0.54 
   1   6  12    2.80    1.19 
  -1  -7  11    5.58    1.96 
  -1  -7  10   -0.45    0.53 
  -1  -7   9   22.37    3.67 
  -1  -7   8    0.74    0.28 
  -1  -7   7    1.29    0.77 
  -1  -7   6    1.85    0.95 
  -1  -7   5    8.79    2.02 
  -1  -7   5    4.53    1.46 
   1   7  -5    6.12    1.55 
  -1  -7   4   13.33    2.27 
  -1  -7   4   12.95    2.16 
   1   7  -3   34.42    3.43 
  -1  -7   3   35.21    3.79 
  -1  -7   2    2.68    0.95 
  -1  -7   2    0.75    0.41 
  -1  -7   2    2.61    0.74 
   1   7  -2    1.50    0.67 
  -1  -7   1   47.15    3.51 
   1   7  -1   40.54    3.39 
  -1  -7   1   43.15    4.14 
   1   7   0   11.59    1.96 
  -1  -7   0   11.37    1.65 
  -1  -7   0   12.42    2.22 
   1   7   1    2.15    0.78 
  -1  -7  -1    1.56    0.54 
  -1  -7  -2   11.07    1.47 
   1   7   2    6.10    1.31 
  -1  -7  -2    9.00    1.40 
  -1  -7  -3    3.79    0.83 
  -1  -7  -3    2.83    0.77 
   1   7   3    3.03    0.88 
   1   7   4    1.38    0.68 
   1   7   4    5.01    1.35 
  -1  -7  -4    3.85    0.92 
   1   7   5    0.24    0.21 
   1   7   5    0.38    0.41 
   1   7   5    0.61    0.46 
   1   7   6    1.46    0.77 
   1   7   6    1.71    0.58 
   1   7   6    1.30    0.62 
   1   7   7    1.20    0.89 
   1   7   7    1.61    0.82 
   1   7   8    0.24    0.52 
   1   7   8    1.50    0.90 
   1   7   9    0.52    0.68 
   1   7   9   -0.60    0.98 
   1   7  10   -0.01    0.58 
   1   7  10   -0.79    1.29 
   1   7  11   -0.51    0.37 
   1   7  11   -0.58    1.31 
  -1  -8  10    2.06    1.27 
  -1  -8   9    4.48    1.75 
  -1  -8   8    0.58    0.62 
  -1  -8   7    2.29    1.13 
  -1  -8   6    0.61    0.55 
  -1  -8   5    4.68    1.56 
  -1  -8   5    3.73    1.21 
  -1  -8   4   16.81    2.70 
  -1  -8   3   36.06    3.65 
  -1  -8   3   30.46    3.66 
  -1  -8   2    6.83    1.53 
  -1  -8   2    5.56    1.54 
  -1  -8   2    4.32    1.02 
  -1  -8   1    6.87    1.76 
   1   8  -1    6.82    1.45 
  -1  -8   1    5.02    1.20 
   1   8   0    6.19    1.51 
  -1  -8   0    6.49    1.71 
  -1  -8   0    5.37    1.28 
  -1  -8  -1    0.75    0.34 
  -1  -8  -1    0.52    0.47 
  -1  -8  -1    0.11    0.21 
  -1  -8  -2    6.40    1.19 
  -1  -8  -2    9.79    1.57 
   1   8   2    5.08    1.27 
  -1  -8  -3    0.76    0.48 
   1   8   3    0.12    0.39 
  -1  -8  -3    0.04    0.10 
   1   8   4   15.68    2.36 
   1   8   4   10.36    1.76 
   1   8   5    3.40    1.10 
   1   8   5    2.45    1.02 
   1   8   6   -0.76    0.52 
   1   8   6    0.49    0.56 
   1   8   7   -0.31    0.36 
   1   8   7   -0.11    0.70 
   1   8   8   -0.16    0.63 
   1   8   8   -0.18    0.43 
   1   8   9    0.02    0.10 
   1   8  10   -0.83    0.79 
  -1  -9   9   -1.14    1.31 
  -1  -9   8    1.93    1.21 
  -1  -9   7    1.44    0.91 
  -1  -9   6   -0.45    0.77 
  -1  -9   5   -0.73    0.85 
  -1  -9   5   -0.19    0.51 
  -1  -9   4   -0.45    0.48 
  -1  -9   4    0.32    0.27 
  -1  -9   3    0.47    0.09 
  -1  -9   3    0.36    0.49 
  -1  -9   3    0.32    0.80 
  -1  -9   2   -0.80    0.83 
  -1  -9   2    0.08    0.32 
  -1  -9   2   -0.23    0.24 
  -1  -9   1    7.83    1.65 
  -1  -9   1    7.90    1.99 
  -1  -9   0    0.06    0.21 
  -1  -9   0    0.47    0.31 
  -1  -9   0    0.51    0.27 
  -1  -9  -1   -0.16    0.31 
  -1  -9  -1    0.30    0.57 
  -1  -9  -1    0.29    0.39 
  -1  -9  -2   12.20    1.87 
  -1  -9  -2    9.67    1.55 
  -1  -9  -3    4.01    1.00 
  -1  -9  -3    2.26    0.86 
   1   9   4    0.14    0.59 
   1   9   5    0.54    0.56 
   1   9   6    0.14    0.26 
   1   9   7    0.92    0.65 
   1   9   8   -0.33    0.31 
  -1 -10   8    0.48    0.20 
  -1 -10   7    3.33    1.43 
  -1 -10   6   -0.71    0.66 
  -1 -10   5   -0.97    0.72 
  -1 -10   5    0.61    1.01 
  -1 -10   4    2.73    1.31 
  -1 -10   4    4.69    1.53 
  -1 -10   3    2.25    1.19 
  -1 -10   3    2.12    1.00 
  -1 -10   2    2.32    1.16 
  -1 -10   2    2.20    0.95 
  -1 -10   1    1.47    1.08 
  -1 -10   1    0.48    0.49 
  -1 -10   0   -0.01    0.18 
  -1 -10   0    0.25    0.44 
  -1 -10   0    0.38    0.29 
  -1 -10  -1    0.58    0.50 
  -1 -10  -1   -0.21    0.20 
  -1 -10  -1    0.76    0.40 
  -1 -10  -2    0.45    0.45 
  -1 -10  -2    0.09    0.74 
  -1 -10  -2    0.81    0.44 
  -1 -10  -3    0.00    0.34 
   1  10   4    0.59    0.67 
   1  10   5    0.91    0.72 
   1  10   6    0.49    0.69 
   1  10   7   -0.82    1.02 
  -1 -11   7    5.06    1.84 
  -1 -11   6   -0.80    0.70 
  -1 -11   5    2.53    1.37 
  -1 -11   5    1.99    1.58 
  -1 -11   4    1.74    1.10 
  -1 -11   4    2.01    1.42 
  -1 -11   3   -0.11    0.87 
  -1 -11   3   -0.39    0.82 
  -1 -11   2    0.23    0.26 
  -1 -11   2    0.77    1.39 
  -1 -11   1   -0.11    0.54 
  -1 -11   1   -0.62    0.82 
  -1 -11   0    0.48    0.46 
  -1 -11   0   -0.44    0.21 
  -1 -11  -1    0.20    0.60 
  -1 -11  -2    0.44    0.11 
  -1 -11  -3   -2.29    1.25 
   1  11   4    0.12    1.24 
   1  11   5    0.18    0.64 
  -1 -12   5   -0.75    0.68 
  -1 -12   4    4.20    1.57 
  -1 -12   3    0.86    0.82 
  -1 -12   2    1.57    1.55 
  -1 -12   2    3.49    1.57 
  -1 -12   1    1.81    1.20 
  -1 -12   0    4.32    2.05 
  -1 -12  -1   -0.61    0.65 
  -1 -12  -2    0.73    0.45 
  -1 -12  -3   -0.24    0.43 
   2 -13  -3   -2.89    1.49 
   2 -13  -2   -2.90    1.44 
   2 -13  -1    1.21    1.31 
   2 -13   0    0.43    0.41 
   2 -13   1   -0.41    0.65 
   2 -13   2   -0.90    0.86 
   2 -12  -4    1.24    0.80 
   2 -12  -3    1.01    0.74 
   2 -12  -2   -0.09    0.95 
   2 -12  -1    0.79    1.01 
   2 -12   0    0.30    1.72 
   2 -12   1    0.83    0.77 
   2 -12   2    2.07    1.00 
   2 -12   3   -0.35    0.94 
   2 -12   4    0.14    1.08 
   2 -12   5   -0.26    0.19 
  -2  11   7   -1.01    0.82 
  -2  11   6    1.55    1.02 
  -2  11   5   -3.59    1.25 
   2 -11  -4    0.71    0.58 
   2 -11  -3   -1.17    0.99 
   2 -11  -2    1.57    0.90 
   2 -11  -1    0.74    0.62 
   2 -11   0    0.26    0.51 
   2 -11   1   -0.80    0.39 
   2 -11   2   -0.32    0.80 
   2 -11   3    0.57    0.50 
   2 -11   4    0.00    0.04 
   2 -11   5    0.53    0.53 
   2 -11   6    0.81    0.78 
   2 -11   7    4.67    1.70 
  -2  10   8    0.05    0.78 
  -2  10   7    0.38    0.53 
  -2  10   6    1.70    0.85 
  -2  10   5   -0.53    0.96 
   2 -10  -4   -0.27    0.35 
   2 -10  -3    1.45    0.80 
   2 -10  -2    0.51    0.49 
   2 -10  -2    1.09    0.61 
   2 -10  -1    6.92    1.79 
   2 -10  -1    5.09    1.22 
   2 -10   0    0.27    0.29 
   2 -10   0    0.62    0.33 
   2 -10   1    0.52    0.30 
   2 -10   1    1.61    1.01 
   2 -10   2   -0.18    0.32 
   2 -10   3    3.68    1.36 
   2 -10   4    2.63    1.15 
   2 -10   5   10.39    2.42 
   2 -10   6    1.43    1.05 
   2 -10   7    5.95    1.90 
   2 -10   8    0.15    0.52 
  -2   9   9    0.29    0.49 
  -2   9   8   -0.21    0.58 
  -2   9   7    0.88    0.68 
  -2   9   6    0.78    0.36 
  -2   9   5   -0.45    0.71 
   2  -9  -4    1.92    0.83 
   2  -9  -3    0.22    0.30 
   2  -9  -2   35.46    3.83 
   2  -9  -1   10.51    2.14 
   2  -9  -1   10.82    1.60 
   2  -9   0    0.87    0.37 
   2  -9   0    1.15    0.86 
   2  -9   1   71.03    5.64 
   2  -9   1   60.04    3.20 
   2  -9   2   19.57    0.96 
   2  -9   2   25.87    3.48 
   2  -9   3   13.06    2.36 
   2  -9   4   -0.25    0.70 
   2  -9   4    0.18    0.22 
   2  -9   5    0.23    0.24 
   2  -9   5    0.18    0.50 
   2  -9   6    0.24    0.35 
   2  -9   7    6.89    1.99 
   2  -9   8    5.78    1.87 
   2  -9   8    4.27    1.69 
   2  -9   9    1.87    1.11 
   2  -9   9   -0.16    0.33 
  -2   8  10    0.02    0.59 
  -2   8   9   -0.49    0.21 
  -2   8   8   -0.34    0.44 
  -2   8   7   -0.03    0.13 
  -2   8   6    1.04    0.65 
  -2   8   5   -0.60    0.67 
   2  -8  -4    9.62    1.76 
   2  -8  -3    8.14    1.69 
   2  -8  -2   23.75    2.97 
   2  -8  -1   50.42    4.40 
   2  -8  -1   73.92    3.74 
   2  -8   0    5.73    1.71 
   2  -8   0    6.56    1.02 
   2  -8   1    0.74    0.75 
   2  -8   1    0.67    0.32 
   2  -8   2   41.26    3.98 
   2  -8   3   83.98    3.60 
   2  -8   3  147.08    7.66 
   2  -8   4    0.55    0.33 
   2  -8   4    0.31    0.25 
  -2   8  -5    6.21    1.23 
   2  -8   5    7.63    1.81 
   2  -8   6    1.78    0.88 
  -2   8  -6    0.43    0.11 
  -2   8  -7   -0.12    0.62 
   2  -8   7    1.23    0.85 
   2  -8   7    1.30    1.00 
   2  -8   8    5.19    1.72 
   2  -8   9    0.08    0.64 
   2  -8  10    2.07    1.43 
  -2   7  11    1.09    0.74 
  -2   7  10    1.06    0.76 
  -2   7   9   -1.85    0.96 
  -2   7   8   -2.25    1.04 
  -2   7   7    1.94    0.58 
  -2   7   7    1.58    0.68 
  -2   7   6    4.25    1.41 
  -2   7   6    5.37    0.97 
  -2   7   5    0.04    0.26 
  -2   7   5    0.26    0.30 
  -2   7   4   79.33    5.10 
   2  -7  -4   94.60    5.49 
   2  -7  -3    3.85    1.10 
  -2   7   3    3.92    1.07 
   2  -7  -2   10.31    1.82 
  -2   7   2   10.65    1.71 
  -2   7   1    4.17    1.14 
   2  -7  -1    4.12    1.11 
   2  -7   0   -0.33    0.51 
   2  -7   0    0.41    0.23 
  -2   7   0    0.06    0.20 
   2  -7   1   14.44    1.26 
   2  -7   1   12.35    2.06 
  -2   7  -1   16.49    2.38 
  -2   7  -2    0.05    0.12 
   2  -7   2    0.07    0.32 
   2  -7   3    8.76    1.73 
   2  -7   3    8.34    1.25 
  -2   7  -4    4.38    0.95 
   2  -7   4    4.03    1.30 
   2  -7   5    1.53    0.99 
  -2   7  -5    0.34    0.27 
   2  -7   5    0.92    0.57 
   2  -7   6    2.91    1.13 
  -2   7  -6    3.79    1.15 
   2  -7   6    4.18    1.26 
  -2   7  -7    0.24    0.60 
   2  -7   7   -0.05    0.17 
   2  -7   8    3.37    1.37 
   2  -7   9    0.07    0.47 
   2  -7  10    1.35    0.80 
   2  -7  11   -0.90    0.81 
  -2   6  12    0.81    0.49 
  -2   6  11    0.48    0.43 
  -2   6  10    0.27    0.81 
  -2   6   9    5.56    1.61 
  -2   6   8   24.46    3.27 
  -2   6   7    8.87    1.91 
  -2   6   7   11.15    1.49 
  -2   6   6    6.73    1.07 
  -2   6   6    7.34    1.59 
  -2   6   6    7.39    1.58 
  -2   6   5   32.94    3.55 
  -2   6   5   29.69    3.14 
  -2   6   5   29.15    2.02 
  -2   6   4    7.45    1.64 
  -2   6   4    7.55    0.90 
   2  -6  -4    6.82    1.34 
  -2   6   3   -0.10    0.26 
   2  -6  -3    0.50    0.43 
  -2   6   3    0.07    0.13 
   2  -6  -2    7.53    1.48 
  -2   6   2    4.57    1.05 
   2  -6  -1   30.33    2.95 
  -2   6   1   41.42    3.28 
   2  -6   0   67.03    4.53 
   2  -6   0   66.89    2.46 
   2  -6   1   19.22    1.23 
   2  -6   1   20.10    2.41 
   2  -6   2    7.86    1.50 
   2  -6   2    6.47    0.99 
   2  -6   3    6.28    1.38 
   2  -6   3    7.39    1.32 
  -2   6  -3    7.96    1.03 
  -2   6  -3    7.82    1.52 
  -2   6  -4    0.79    0.48 
   2  -6   4    1.46    0.72 
   2  -6   4    0.44    0.30 
  -2   6  -4    1.25    0.64 
   2  -6   5    9.00    1.95 
  -2   6  -5    7.18    1.28 
   2  -6   5    8.86    1.86 
   2  -6   6    0.35    0.08 
  -2   6  -6    0.81    0.53 
   2  -6   7    5.35    1.72 
  -2   6  -7    4.28    1.35 
   2  -6   8   24.11    3.61 
  -2   6  -8   20.55    2.85 
   2  -6   9    2.16    1.18 
   2  -6  10   -0.10    1.08 
   2  -6  11    4.82    1.77 
   2  -6  12   -1.35    0.97 
  -2   5  12   -0.84    1.10 
  -2   5  11    1.45    0.87 
  -2   5  10    1.99    1.11 
  -2   5   9    5.81    1.63 
  -2   5   8   11.37    2.12 
  -2   5   7    9.69    1.91 
  -2   5   6    2.18    0.82 
  -2   5   6    2.15    0.92 
  -2   5   5    0.03    0.08 
  -2   5   5   -0.38    0.24 
  -2   5   4    4.28    0.65 
  -2   5   4    4.64    1.11 
   2  -5  -4    4.33    1.13 
  -2   5   4    2.16    0.88 
   2  -5  -3    3.26    0.91 
  -2   5   3    1.90    0.81 
  -2   5   3    3.43    0.51 
   2  -5  -2   59.76    3.77 
  -2   5   2   42.01    1.42 
   2  -5  -1   10.38    1.60 
  -2   5   1    6.37    0.80 
   2  -5   0   51.41    1.61 
   2  -5   0   40.36    3.22 
   2  -5   1    9.61    1.47 
   2  -5   2   11.18    1.71 
   2  -5   2   14.49    1.64 
  -2   5  -2   15.67    1.11 
   2  -5   3   54.41    3.93 
  -2   5  -3   46.40    2.36 
   2  -5   4    3.18    0.92 
  -2   5  -4    5.32    1.22 
   2  -5   4    2.60    0.86 
  -2   5  -4    3.04    0.70 
  -2   5  -5   11.53    1.72 
   2  -5   5   15.95    2.34 
  -2   5  -5   18.25    2.43 
   2  -5   6   23.53    3.07 
  -2   5  -6   26.52    3.19 
  -2   5  -6   21.43    2.50 
  -2   5  -7   16.08    2.38 
   2  -5   7   13.38    2.43 
   2  -5   8    1.32    0.69 
  -2   5  -8    0.90    0.90 
   2  -5   9    1.25    0.77 
   2  -5  10    9.92    2.25 
   2  -5  11    0.95    1.09 
   2  -5  12    2.11    1.33 
  -2   4  12    0.07    0.37 
  -2   4  11   -0.35    0.66 
  -2   4  10    1.60    0.91 
  -2   4   9    0.95    0.56 
  -2   4   8   -1.07    0.63 
  -2   4   7    2.90    0.93 
  -2   4   7    1.44    0.71 
  -2   4   6    7.92    1.47 
  -2   4   6    6.80    1.44 
  -2   4   5    0.08    0.14 
  -2   4   5    0.11    0.09 
  -2   4   4    1.42    0.59 
  -2   4   4    0.15    0.24 
   2  -4  -3    0.69    0.36 
   2  -4  -2    8.04    1.25 
   2  -4  -1  143.40    5.44 
  -2   4   0    1.42    0.39 
   2  -4   0    4.03    1.01 
   2  -4   1   27.28    2.05 
   2  -4   1   30.85    0.86 
   2  -4   1   30.99    2.46 
   2  -4   2   81.35    3.98 
  -2   4  -2   92.30    2.54 
  -2   4  -3    7.47    0.97 
   2  -4   3    8.24    1.40 
   2  -4   3    8.35    1.35 
   2  -4   4    5.24    1.24 
  -2   4  -4    7.21    1.35 
   2  -4   5  144.07    6.67 
  -2   4  -5  175.57    7.08 
   2  -4   6   11.52    1.90 
  -2   4  -6   19.84    2.61 
  -2   4  -7   10.38    1.92 
   2  -4   7    9.04    1.76 
   2  -4   8    3.87    1.19 
   2  -4   9    0.03    0.64 
   2  -4  10    6.02    1.63 
   2  -4  11    2.47    1.10 
   2  -4  12    4.01    1.48 
   2  -4  13    2.26    1.19 
  -2   3  13    0.00    0.06 
  -2   3  12   -1.82    0.95 
  -2   3  11    9.45    2.36 
  -2   3  10    0.69    0.21 
  -2   3   9   -0.07    0.47 
  -2   3   8    0.24    0.15 
  -2   3   7   -0.16    0.47 
  -2   3   7    0.64    0.45 
   2  -3  -7    0.56    0.50 
   2  -3  -6   15.89    2.24 
  -2   3   6   11.93    1.87 
  -2   3   5    1.04    0.47 
  -2   3   4   58.26    3.66 
  -2   3   3    0.59    0.34 
   2  -3  -2    2.19    0.61 
   2  -3  -1   25.72    2.01 
   2  -3  -1   19.51    1.14 
   2  -3   0    9.57    1.82 
  -2   3   0  153.22    4.78 
   2  -3   1    8.19    1.17 
   2  -3   1    5.56    1.12 
   2  -3   2   96.52    4.18 
   2  -3   2   92.99    4.40 
  -2   3  -2   95.18    4.14 
   2  -3   3   12.90    1.66 
  -2   3  -3   11.35    1.44 
   2  -3   3   12.38    1.02 
   2  -3   4   41.00    3.09 
  -2   3  -4   38.82    2.87 
  -2   3  -5   28.32    2.76 
   2  -3   5   14.28    1.86 
   2  -3   6    1.67    0.66 
  -2   3  -6    2.07    0.77 
  -2   3  -7   11.76    1.85 
   2  -3   7    6.75    1.46 
   2  -3   8    1.39    0.73 
   2  -3   9   13.93    2.34 
   2  -3  10    1.56    0.83 
   2  -3  11    6.57    1.80 
   2  -3  12    1.73    0.99 
   2  -3  13    3.21    1.40 
  -2   2  13    0.39    0.37 
  -2   2  12    0.70    0.61 
  -2   2  11    0.33    0.40 
  -2   2  10   -0.07    0.22 
  -2   2   9   12.06    2.15 
  -2   2   8    0.70    0.52 
  -2   2   7   41.33    3.56 
   2  -2  -7   37.06    3.37 
  -2   2   6   11.24    1.74 
  -2   2   5  104.58    4.91 
  -2   2   4  274.88    7.43 
  -2   2   3    9.78    1.40 
  -2   2   2   14.10    1.47 
   2  -2  -2   16.11    1.50 
   2  -2  -1   67.76    3.01 
   2  -2  -1   70.90    2.36 
  -2   2   0  133.42    2.60 
  -2   2   0  120.76    4.56 
   2  -2   1  339.49    6.46 
  -2   2  -1  434.61    8.98 
  -2   2  -1  397.98    6.65 
   2  -2   2   24.08    1.81 
   2  -2   2   19.72    1.25 
  -2   2  -2   25.80    1.78 
   2  -2   3    2.60    0.69 
   2  -2   3    2.38    0.47 
  -2   2  -3    2.37    0.64 
   2  -2   4   22.35    1.98 
   2  -2   4   22.92    1.64 
  -2   2  -4   30.41    2.44 
  -2   2  -5    0.30    0.25 
   2  -2   5   -0.21    0.29 
   2  -2   5    0.27    0.23 
   2  -2   6   65.20    3.35 
  -2   2  -6   64.36    3.88 
   2  -2   6   72.61    4.22 
   2  -2   7   -0.27    0.30 
   2  -2   7   -0.89    0.50 
  -2   2  -8   43.32    3.74 
   2  -2   8   49.58    4.09 
   2  -2   9   15.76    2.41 
   2  -2  10    1.36    0.76 
   2  -2  11    1.43    0.82 
   2  -2  12    2.49    1.14 
   2  -2  13    0.41    0.40 
  -2   1  13    0.02    0.58 
  -2   1  12    1.10    0.78 
  -2   1  11   -0.22    0.33 
  -2   1  10   -0.17    0.54 
  -2   1   9   22.49    2.92 
  -2   1   8   15.46    2.34 
  -2   1   7   42.34    3.57 
   2  -1  -7   40.96    3.51 
  -2   1   6    7.29    1.36 
  -2   1   5    6.27    1.15 
  -2   1   4  119.11    4.63 
   2  -1  -4  137.21    5.67 
  -2   1   3    5.81    0.90 
   2  -1  -3    4.52    0.89 
  -2   1   2   29.09    1.86 
   2  -1  -2   32.55    2.04 
  -2   1   2   32.97    2.18 
  -2   1   1   47.65    2.27 
  -2   1   1   52.40    2.24 
   2  -1  -1   48.56    2.25 
  -2   1   0  618.17    8.14 
   2  -1   0  722.01    7.98 
  -2   1   0  674.18    7.81 
  -2   1   0  557.63   10.06 
   2  -1   1 2247.50   14.89 
  -2   1  -1 2211.83   13.12 
  -2   1  -1 2217.81   14.48 
   2  -1   2   56.59    2.39 
   2  -1   2   49.27    2.28 
   2  -1   2   54.34    2.20 
   2  -1   3   47.87    2.32 
   2  -1   3   49.39    2.35 
  -2   1  -3   41.32    2.28 
   2  -1   4   36.58    2.23 
  -2   1  -4   36.76    2.35 
   2  -1   5    1.09    0.41 
  -2   1  -5    0.94    0.38 
   2  -1   5    0.76    0.47 
  -2   1  -6   19.23    2.13 
   2  -1   6   15.87    1.69 
   2  -1   6   17.32    1.95 
   2  -1   7   50.32    3.18 
  -2   1  -7   49.48    3.54 
   2  -1   7   58.93    3.96 
  -2   1  -8    9.08    1.61 
   2  -1   8    9.72    1.73 
   2  -1   9   15.84    2.37 
   2  -1  10    3.88    1.22 
   2  -1  11    0.96    0.66 
   2  -1  12    2.21    1.07 
   2  -1  13   -0.10    0.56 
   2  -1  14    2.03    1.46 
  -2   0  13   -0.14    0.68 
  -2   0  12    1.19    0.85 
  -2   0  11    1.73    0.95 
  -2   0  10   -0.18    0.32 
  -2   0   9    0.48    0.41 
  -2   0   8    8.60    1.78 
  -2   0   7   12.41    1.88 
   2   0  -7   12.43    2.21 
  -2   0   6   25.55    2.53 
   2   0  -6   26.34    3.00 
   2   0  -5    4.36    1.12 
  -2   0   5    3.56    0.85 
  -2   0   4   13.86    1.56 
   2   0  -4   12.62    1.70 
  -2   0   3   67.39    3.04 
   2   0  -3   71.40    3.61 
  -2   0   2  170.50    4.15 
   2   0  -2  179.66    5.35 
   2   0  -1   11.54    1.23 
   2   0  -1   10.73    0.81 
  -2   0   1   11.65    0.87 
  -2   0   0 2209.81   20.07 
   2   0   0 2208.71   11.45 
  -2   0  -1   89.64    1.63 
  -2   0  -1   75.98    4.17 
  -2   0  -1   87.31    2.22 
   2   0   2   41.13    1.49 
  -2   0  -2   31.99    1.35 
  -2   0  -3    9.97    0.93 
   2   0   3    9.93    1.10 
   2   0   3    9.01    0.92 
  -2   0  -4   41.65    2.28 
   2   0   4   33.60    2.18 
   2   0   5    4.47    0.90 
  -2   0  -5    3.05    0.72 
   2   0   5    3.85    0.81 
   2   0   6   29.76    2.58 
  -2   0  -6   20.61    2.08 
   2   0   6   25.28    2.20 
   2   0   7    0.86    0.49 
   2   0   7    1.67    0.64 
  -2   0  -7    1.63    0.61 
   2   0   8    6.22    1.41 
  -2   0  -8    4.56    1.12 
   2   0   9    8.11    1.78 
  -2   0  -9    7.10    1.51 
   2   0  10    1.01    0.65 
   2   0  11    1.99    0.95 
   2   0  12   -0.13    0.36 
   2   0  13   -1.66    1.14 
   2   0  14   -0.22    0.65 
  -2  -1  13    1.23    0.93 
  -2  -1  12    2.00    1.11 
  -2  -1  11    5.55    1.70 
  -2  -1  10    6.62    1.76 
  -2  -1   9   26.42    3.41 
  -2  -1   8    1.43    0.72 
   2   1  -7   39.49    3.36 
  -2  -1   7   38.94    3.49 
   2   1  -7   40.64    4.02 
  -2  -1   6   35.70    3.04 
   2   1  -6   38.55    3.59 
  -2  -1   5   -0.31    0.34 
   2   1  -5    0.40    0.42 
  -2  -1   4   19.11    1.81 
   2   1  -4   19.94    2.24 
   2   1  -3    1.58    0.57 
  -2  -1   3    0.73    0.29 
   2   1  -2  628.72    8.10 
  -2  -1   2  649.43    8.22 
  -2  -1   1    0.50    0.18 
   2   1  -1    0.50    0.24 
   2   1  -1    0.62    0.26 
  -2  -1   0  378.43    9.02 
  -2  -1  -1  154.55    6.21 
   2   1   2   24.07    0.99 
  -2  -1  -2   21.02    0.91 
   2   1   3   14.68    1.40 
  -2  -1  -3   12.46    1.00 
   2   1   3   15.17    1.08 
   2   1   4   31.67    1.95 
   2   1   4   38.93    2.41 
  -2  -1  -4   30.53    1.90 
   2   1   5   46.59    2.86 
   2   1   5   35.89    2.42 
  -2  -1  -5   39.86    2.50 
   2   1   6    0.40    0.24 
  -2  -1  -6    0.23    0.27 
   2   1   6    0.22    0.05 
  -2  -1  -7   -0.07    0.32 
   2   1   7    0.60    0.38 
   2   1   8    0.50    0.25 
  -2  -1  -8   -0.25    0.52 
  -2  -1  -9    4.47    1.20 
   2   1   9    4.61    1.27 
   2   1  10    3.20    1.13 
   2   1  11    2.76    1.13 
   2   1  12    0.23    0.38 
   2   1  13    1.02    1.19 
   2   1  14    3.02    1.54 
  -2  -2  13   -1.90    1.56 
  -2  -2  12    1.44    0.98 
  -2  -2  11   12.25    2.65 
  -2  -2  10    4.73    1.50 
  -2  -2   9   11.44    2.31 
  -2  -2   8   25.66    3.21 
  -2  -2   7   27.05    3.12 
   2   2  -7   23.33    2.68 
   2   2  -7   21.42    2.81 
  -2  -2   6   24.22    2.73 
   2   2  -6   21.17    2.45 
   2   2  -6   17.09    2.36 
   2   2  -5    8.21    1.59 
  -2  -2   5    8.46    1.52 
  -2  -2   4   82.48    4.28 
   2   2  -4   72.84    3.77 
   2   2  -4   75.63    4.56 
   2   2  -3  100.85    3.85 
   2   2  -3   82.90    4.56 
   2   2  -2  119.91    5.10 
  -2  -2   2  139.63    4.20 
   2   2  -2  124.50    3.78 
   2   2  -1    3.01    0.52 
  -2  -2   1    2.59    0.44 
  -2  -2   0   62.47    1.89 
  -2  -2   0   68.98    4.20 
   2   2   0   73.94    2.10 
  -2  -2  -1    1.65    0.69 
   2   2   1    0.79    0.18 
   2   2   1    0.33    0.28 
   2   2   2   80.64    4.86 
   2   2   2   75.30    2.02 
   2   2   3    5.51    1.29 
   2   2   3    5.55    0.70 
   2   2   3    5.20    0.42 
  -2  -2  -4    4.73    0.77 
   2   2   4    4.66    0.75 
   2   2   4    5.95    1.00 
   2   2   4    5.55    1.46 
   2   2   5    1.77    0.51 
  -2  -2  -5    1.08    0.38 
   2   2   5    2.96    0.75 
  -2  -2  -6   22.39    2.22 
   2   2   6   28.54    2.45 
   2   2   6   25.51    2.27 
   2   2   7    2.48    0.69 
  -2  -2  -7    1.84    0.73 
   2   2   8    7.45    1.45 
  -2  -2  -8    7.03    1.44 
  -2  -2  -9   -0.92    0.65 
   2   2   9    0.00    0.22 
   2   2  10    0.27    0.39 
   2   2  11    2.89    1.14 
   2   2  12    6.13    1.76 
   2   2  13   -0.18    0.25 
  -2  -3  13    1.78    1.10 
  -2  -3  12    2.56    1.26 
  -2  -3  11    5.54    1.80 
  -2  -3  10    2.81    1.24 
  -2  -3   9    2.30    0.92 
  -2  -3   8    1.81    0.90 
  -2  -3   7    0.46    0.45 
   2   3  -7   -0.11    0.18 
  -2  -3   6    1.33    0.53 
   2   3  -6    1.69    0.85 
   2   3  -6    2.07    0.71 
   2   3  -5    0.33    0.45 
  -2  -3   5    1.52    0.61 
   2   3  -5    1.08    0.63 
   2   3  -4   27.01    2.33 
  -2  -3   4   19.84    2.12 
   2   3  -4   27.82    2.90 
   2   3  -3  130.91    4.94 
   2   3  -3  140.82    6.24 
   2   3  -2   11.03    1.64 
  -2  -3   2   12.26    1.32 
   2   3  -2   14.32    1.48 
  -2  -3   1    0.19    0.15 
   2   3  -1    0.04    0.17 
   2   3   0   55.12    2.25 
  -2  -3   0   75.21    4.58 
  -2  -3  -1    4.39    0.44 
  -2  -3  -1    4.71    1.12 
   2   3   1    4.76    0.65 
   2   3   1    3.84    1.00 
  -2  -3  -2   75.33    3.50 
   2   3   2   86.47    5.24 
   2   3   3   83.71    2.95 
  -2  -3  -3   81.13    3.80 
   2   3   3   74.71    5.16 
   2   3   4   63.97    2.04 
   2   3   4   63.38    2.84 
  -2  -3  -4   66.41    3.54 
   2   3   4   61.30    4.91 
   2   3   5    0.04    0.07 
   2   3   5    0.24    0.15 
   2   3   5   -0.10    0.20 
   2   3   6    0.63    0.74 
   2   3   6    1.26    0.55 
   2   3   7    5.59    1.12 
   2   3   7    3.72    0.75 
   2   3   8    1.89    0.70 
  -2  -3  -8    2.61    0.89 
   2   3   9    3.07    0.96 
  -2  -3  -9    7.88    1.68 
   2   3  10    1.91    0.84 
   2   3  11    8.59    1.94 
   2   3  12    1.04    1.02 
   2   3  13    1.35    0.87 
  -2  -4  12    3.25    1.45 
  -2  -4  11    2.60    1.23 
  -2  -4  10   -0.37    0.44 
  -2  -4   9    2.98    1.20 
  -2  -4   8    2.11    1.01 
  -2  -4   7    2.86    0.98 
   2   4  -6    3.64    1.26 
  -2  -4   6    5.33    1.30 
   2   4  -6    5.26    1.23 
   2   4  -5   -0.40    0.66 
   2   4  -5    0.12    0.11 
  -2  -4   5    0.19    0.05 
  -2  -4   5   -0.20    0.33 
  -2  -4   4   20.43    2.21 
  -2  -4   4   26.31    3.01 
   2   4  -4   24.64    2.46 
   2   4  -4   25.62    2.90 
   2   4  -3   13.62    1.71 
  -2  -4   3    7.73    1.26 
   2   4  -3   10.57    1.75 
  -2  -4   3   12.35    2.01 
  -2  -4   2   -0.18    0.29 
   2   4  -2    0.12    0.27 
   2   4  -1   28.64    2.12 
  -2  -4   1   27.43    2.11 
  -2  -4   1   23.70    2.53 
   2   4   0  253.71    5.64 
  -2  -4   0  232.89    8.30 
  -2  -4  -1    9.46    0.89 
   2   4   1    7.83    1.04 
  -2  -4  -1   10.87    1.79 
   2   4   2  145.14    6.81 
  -2  -4  -2  163.79    5.49 
  -2  -4  -3    0.48    0.31 
   2   4   3    0.17    0.19 
   2   4   3    0.53    0.44 
   2   4   4    2.32    0.37 
  -2  -4  -4    2.36    0.69 
   2   4   4    1.37    0.75 
   2   4   4    2.48    0.62 
   2   4   5   33.95    1.82 
   2   4   5   35.60    3.97 
  -2  -4  -5   34.51    2.81 
   2   4   5   38.55    2.61 
   2   4   6   21.15    2.11 
   2   4   6   16.08    1.43 
   2   4   6   20.11    3.23 
   2   4   7    1.54    0.49 
   2   4   7    1.10    0.53 
   2   4   8   14.65    2.07 
   2   4   8   12.86    1.57 
   2   4   9    1.23    0.62 
   2   4  10    0.09    0.18 
   2   4  11    1.04    0.67 
   2   4  12    1.20    0.81 
  -2  -5  12   -0.37    0.73 
  -2  -5  11    1.95    1.08 
  -2  -5  10   -0.09    0.22 
  -2  -5   9   -0.10    0.32 
  -2  -5   8    0.69    0.55 
  -2  -5   7    1.57    0.72 
  -2  -5   6   10.47    2.24 
  -2  -5   6    9.82    1.87 
  -2  -5   5    1.79    0.73 
  -2  -5   5    1.97    0.95 
   2   5  -5    1.78    0.85 
   2   5  -5    2.78    0.92 
   2   5  -4    7.90    1.51 
  -2  -5   4    7.64    1.67 
  -2  -5   4    9.59    1.68 
   2   5  -4    6.96    1.53 
  -2  -5   3    1.87    0.84 
  -2  -5   3    2.88    0.90 
   2   5  -3    4.82    1.11 
   2   5  -2   84.54    4.29 
  -2  -5   2   73.22    5.14 
  -2  -5   2   68.16    3.93 
  -2  -5   1   -0.03    0.12 
   2   5  -1    0.07    0.12 
  -2  -5   0   42.60    3.74 
  -2  -5   0   46.09    2.58 
   2   5   0   41.91    2.63 
  -2  -5   0   45.78    4.15 
  -2  -5  -1    1.91    0.46 
   2   5   1    0.97    0.45 
  -2  -5  -1    0.71    0.52 
  -2  -5  -2    2.98    0.52 
   2   5   2    2.92    0.69 
   2   5   2    2.59    0.90 
  -2  -5  -2    3.16    0.79 
   2   5   3   61.83    4.93 
   2   5   3   62.42    3.28 
  -2  -5  -3   61.25    3.67 
  -2  -5  -4    5.56    1.12 
   2   5   4    4.31    0.86 
   2   5   4    3.79    1.26 
   2   5   5    4.15    0.62 
   2   5   5    6.24    1.73 
  -2  -5  -5    4.47    1.03 
   2   5   5    5.01    1.06 
   2   5   6   37.49    2.17 
   2   5   6   41.55    3.03 
   2   5   6   39.87    4.51 
   2   5   7   50.84    2.91 
   2   5   7   42.27    5.16 
   2   5   7   38.12    3.27 
   2   5   8    5.52    1.29 
   2   5   8    4.39    1.67 
   2   5   9    0.73    0.90 
   2   5   9    0.89    0.55 
   2   5  10    3.43    1.11 
   2   5  10    3.93    2.16 
   2   5  11   -0.02    0.76 
   2   5  12    0.31    1.45 
  -2  -6  11    3.89    1.54 
  -2  -6  10    1.80    0.99 
  -2  -6   9    1.75    0.93 
  -2  -6   8    2.52    1.07 
  -2  -6   7    5.58    1.63 
  -2  -6   6    9.43    2.25 
  -2  -6   6    5.59    1.54 
  -2  -6   5   10.51    2.03 
  -2  -6   5   10.81    2.27 
   2   6  -4    4.88    1.25 
   2   6  -4    6.69    1.65 
  -2  -6   4    4.41    1.36 
  -2  -6   4    8.14    1.75 
  -2  -6   3    0.28    0.76 
  -2  -6   3    0.07    0.11 
   2   6  -3    0.17    0.08 
  -2  -6   2    6.84    1.67 
   2   6  -2    6.36    1.31 
  -2  -6   2    7.05    1.48 
  -2  -6   1    6.20    1.44 
   2   6  -1    4.27    0.97 
  -2  -6   1    4.63    1.01 
  -2  -6   1    5.10    1.46 
  -2  -6   0   28.75    2.96 
  -2  -6   0   26.47    2.17 
   2   6   0   29.48    2.45 
  -2  -6   0   30.81    3.61 
  -2  -6  -1    5.54    0.95 
   2   6   1    1.07    0.47 
  -2  -6  -2   36.29    2.18 
   2   6   2   36.09    2.78 
   2   6   3   14.60    1.83 
  -2  -6  -3   16.66    1.99 
   2   6   3   13.42    2.11 
  -2  -6  -4    1.99    0.71 
   2   6   4    3.64    1.28 
   2   6   4    1.98    0.70 
  -2  -6  -5   -0.02    0.18 
   2   6   5   -0.64    0.69 
   2   6   5    0.38    0.50 
   2   6   6    3.33    0.63 
   2   6   6    4.06    1.34 
   2   6   6    1.82    0.67 
   2   6   7    3.36    1.49 
   2   6   7    4.94    1.16 
   2   6   8    0.82    0.45 
   2   6   8    0.26    0.27 
   2   6   9    0.36    0.95 
   2   6   9    0.64    0.53 
   2   6  10    0.76    1.00 
   2   6  10   -0.25    0.22 
   2   6  11   -0.77    0.86 
  -2  -7  11    1.47    1.36 
  -2  -7  10    0.71    0.67 
  -2  -7   9    1.66    0.94 
  -2  -7   8    0.96    0.57 
  -2  -7   7    6.51    1.93 
  -2  -7   6    1.32    0.80 
  -2  -7   6    1.49    1.22 
  -2  -7   5    0.31    0.36 
  -2  -7   5    0.84    0.50 
  -2  -7   4   11.02    2.07 
  -2  -7   4   16.27    2.74 
  -2  -7   3   24.50    3.40 
   2   7  -3   25.95    2.93 
   2   7  -2   31.89    3.11 
  -2  -7   2   41.50    3.42 
  -2  -7   2   35.68    4.02 
   2   7  -1   10.31    1.63 
  -2  -7   1   12.61    1.78 
  -2  -7   1   12.57    2.44 
  -2  -7   1   15.04    2.28 
   2   7   0    2.95    0.83 
  -2  -7   0    2.85    1.20 
  -2  -7   0    3.72    1.06 
  -2  -7   0    3.68    0.84 
  -2  -7  -1    0.78    0.52 
   2   7   1   -0.13    0.30 
  -2  -7  -1    0.25    0.38 
  -2  -7  -1    1.09    0.82 
   2   7   2   -0.41    0.48 
  -2  -7  -2   -0.11    0.17 
  -2  -7  -2   -0.35    0.24 
   2   7   3   12.78    1.79 
  -2  -7  -3   13.97    1.92 
   2   7   4    0.75    0.43 
   2   7   4    1.22    0.69 
  -2  -7  -4    0.96    0.47 
   2   7   5    3.22    1.29 
  -2  -7  -5    2.32    0.87 
   2   7   5    2.18    0.82 
   2   7   6   -0.16    0.44 
   2   7   6   -0.16    0.35 
   2   7   7    1.65    1.53 
   2   7   7    1.28    0.68 
   2   7   8    1.41    1.34 
   2   7   8   -0.54    0.46 
   2   7   9   -0.49    0.77 
   2   7   9    0.15    0.30 
   2   7  10    0.53    1.20 
  -2  -8  10   -1.49    1.06 
  -2  -8   9    1.10    0.85 
  -2  -8   8    1.75    1.06 
  -2  -8   7    3.03    1.32 
  -2  -8   6    0.88    1.11 
  -2  -8   6    0.44    0.47 
  -2  -8   5    2.40    1.35 
  -2  -8   5    2.54    1.05 
  -2  -8   4    1.23    0.47 
  -2  -8   3    5.10    1.75 
  -2  -8   3    5.21    1.35 
  -2  -8   3    5.80    1.47 
  -2  -8   2   17.51    2.98 
  -2  -8   2   16.22    2.25 
  -2  -8   2   16.84    2.49 
  -2  -8   1    0.12    0.34 
  -2  -8   1    0.34    0.21 
   2   8  -1    0.20    0.25 
  -2  -8   1   -0.01    0.35 
  -2  -8   0    1.60    0.98 
  -2  -8   0    2.12    0.77 
   2   8   0    3.00    0.91 
  -2  -8  -1    0.99    0.48 
   2   8   1    1.81    0.73 
  -2  -8  -1    1.07    0.60 
  -2  -8  -1    0.02    0.23 
  -2  -8  -2    0.39    0.28 
  -2  -8  -2   -0.11    0.49 
  -2  -8  -3    1.72    0.71 
   2   8   3    0.61    0.43 
  -2  -8  -4    1.86    0.74 
   2   8   4    2.16    0.80 
   2   8   5    1.19    0.78 
   2   8   5    1.85    0.74 
   2   8   6    0.20    0.18 
   2   8   6    0.45    0.53 
   2   8   7    4.53    1.24 
   2   8   7    1.98    1.29 
  -2  -9   9    1.76    0.86 
  -2  -9   8    0.19    0.26 
  -2  -9   7   -0.78    0.63 
  -2  -9   6    1.78    1.33 
  -2  -9   6    0.23    0.66 
  -2  -9   5    1.11    1.13 
  -2  -9   4    2.28    1.41 
  -2  -9   4    0.06    0.25 
  -2  -9   3   -1.12    0.93 
  -2  -9   3    0.23    0.27 
  -2  -9   2    1.08    0.81 
  -2  -9   2    3.76    1.25 
  -2  -9   1    0.94    0.84 
  -2  -9   1   -0.02    0.32 
  -2  -9   0    0.60    0.38 
  -2  -9   0    0.75    0.56 
  -2  -9   0    0.13    0.61 
  -2  -9  -1   -0.57    0.43 
  -2  -9  -1   -0.25    0.30 
  -2  -9  -2    0.19    0.28 
  -2  -9  -2    1.02    0.56 
  -2  -9  -3    0.71    0.66 
  -2  -9  -4    1.57    0.76 
   2   9   4    1.91    0.76 
   2   9   5    0.23    0.73 
   2   9   6    2.10    0.89 
  -2 -10   8   -0.36    0.62 
  -2 -10   6    2.59    1.97 
  -2 -10   6    3.28    1.36 
  -2 -10   5    3.67    1.93 
  -2 -10   5    4.95    1.60 
  -2 -10   4    0.57    0.52 
  -2 -10   4   -0.43    0.60 
  -2 -10   3    0.75    0.98 
  -2 -10   3    0.92    0.55 
  -2 -10   2   -0.82    0.82 
  -2 -10   2    1.58    0.78 
  -2 -10   1    1.38    1.07 
  -2 -10   1    0.86    0.58 
  -2 -10   0    1.85    0.91 
  -2 -10   0    0.30    0.34 
  -2 -10   0    0.50    0.90 
  -2 -10  -1   -0.87    0.92 
  -2 -10  -1    0.89    0.58 
  -2 -10  -2    0.54    0.61 
  -2 -10  -2   -0.30    0.64 
  -2 -10  -3    1.00    0.45 
  -2 -10  -3    1.61    1.09 
  -2 -10  -4   -0.15    0.25 
   2  10   4   -0.69    0.79 
  -2 -11   7    0.77    0.85 
  -2 -11   6    0.57    0.77 
  -2 -11   6    0.85    0.97 
  -2 -11   5    0.94    0.87 
  -2 -11   5    1.15    0.82 
  -2 -11   4    0.88    1.30 
  -2 -11   4    0.85    0.73 
  -2 -11   3    2.28    1.50 
  -2 -11   3    1.16    0.74 
  -2 -11   2    0.18    0.99 
  -2 -11   1    2.01    1.25 
  -2 -11   0    4.80    2.03 
  -2 -11  -1    0.10    1.22 
  -2 -11  -2   -0.38    0.96 
  -2 -11  -3    0.48    0.96 
  -2 -11  -4   -2.25    1.38 
  -2 -12   3   -1.16    1.62 
  -2 -12   2   -3.61    1.94 
  -2 -12   1    0.35    0.75 
  -2 -12   0   -1.04    0.91 
  -2 -12  -1    0.75    0.57 
  -2 -12  -2   -4.81    2.01 
   3 -13  -3    0.12    0.30 
   3 -13  -2    0.67    0.29 
   3 -13  -1    1.50    1.01 
   3 -13   0    0.07    0.32 
   3 -12  -4    1.31    0.85 
   3 -12  -3    1.27    1.06 
   3 -12  -2   -0.67    0.92 
   3 -12  -1    2.18    1.18 
   3 -12   0    1.73    1.34 
   3 -12   1    2.89    1.40 
   3 -12   2   -1.24    1.27 
   3 -12   3   -1.39    1.50 
   3 -12   4   -0.27    0.47 
  -3  11   6   -0.08    0.45 
  -3  11   5    0.68    1.46 
   3 -11  -4    1.32    3.75 
   3 -11  -3    0.83    0.50 
   3 -11  -2    0.42    0.49 
   3 -11  -1    4.57    1.56 
   3 -11   0    1.67    0.98 
   3 -11   1   -1.27    1.33 
   3 -11   2   -0.90    1.00 
   3 -11   3    0.18    0.42 
   3 -11   4   -0.52    0.91 
   3 -11   5   -0.75    0.69 
   3 -11   6    0.46    0.76 
  -3  10   8   -1.36    0.90 
  -3  10   7   -1.02    0.80 
  -3  10   6   -1.52    1.02 
   3 -10  -5   -1.36    0.78 
  -3  10   5   -1.93    1.03 
   3 -10  -4    0.00    0.49 
   3 -10  -3   -0.34    0.50 
   3 -10  -2   -0.03    0.60 
   3 -10  -2   -0.15    0.12 
   3 -10  -1    7.88    1.92 
   3 -10  -1    5.11    0.76 
   3 -10   0    6.12    1.84 
   3 -10   1    0.57    0.59 
   3 -10   2    3.58    1.48 
   3 -10   3   45.43    5.18 
   3 -10   4    3.74    1.38 
   3 -10   5   16.01    3.08 
   3 -10   6    2.95    1.61 
   3 -10   7    2.47    1.52 
   3 -10   8    2.27    1.25 
  -3   9   9   -0.23    1.02 
  -3   9   8    1.22    1.00 
  -3   9   7    1.77    1.11 
  -3   9   6    0.82    0.81 
   3  -9  -5    0.40    0.32 
  -3   9   5   -0.21    1.11 
   3  -9  -4    2.18    0.77 
   3  -9  -3    3.39    1.21 
   3  -9  -2   15.59    2.74 
   3  -9  -2   11.61    1.44 
   3  -9  -1    5.38    0.74 
   3  -9  -1    5.71    1.55 
   3  -9   0   34.58    4.08 
   3  -9   1   22.73    3.41 
   3  -9   2    8.56    2.11 
   3  -9   3   62.10    5.55 
   3  -9   4   16.11    2.89 
   3  -9   4   11.92    1.73 
   3  -9   5   41.48    3.84 
   3  -9   5   50.27    5.14 
   3  -9   6    0.12    0.56 
   3  -9   6    1.34    0.86 
   3  -9   7   -0.20    0.52 
   3  -9   7    0.81    0.75 
   3  -9   8   -0.60    0.62 
   3  -9   8    2.23    1.42 
   3  -9   9    0.70    0.69 
  -3   8  10    5.53    1.99 
  -3   8   9    1.55    1.27 
  -3   8   8   -0.29    0.70 
  -3   8   7   -0.10    0.85 
  -3   8   6    3.89    0.79 
  -3   8   6    3.01    1.31 
  -3   8   5    0.01    0.14 
  -3   8   5    0.74    0.83 
   3  -8  -4    4.47    1.38 
   3  -8  -3   18.18    2.66 
  -3   8   3   12.52    1.19 
   3  -8  -2   25.28    3.19 
   3  -8  -1   36.21    3.97 
   3  -8  -1   34.10    1.65 
   3  -8   0   91.98    6.46 
   3  -8   1    1.37    0.89 
   3  -8   2    1.83    0.94 
   3  -8   3    1.28    0.50 
   3  -8   3    1.55    0.26 
   3  -8   3    1.60    0.82 
   3  -8   4    3.48    1.30 
   3  -8   4    4.48    0.64 
   3  -8   4    3.16    1.00 
   3  -8   5   14.88    2.63 
   3  -8   5   12.14    1.22 
   3  -8   5   13.93    2.27 
  -3   8  -5   14.27    1.65 
   3  -8   6   -0.14    0.53 
   3  -8   6   -0.05    0.26 
   3  -8   6    0.51    0.54 
   3  -8   7    0.26    0.48 
   3  -8   8   -0.56    0.53 
   3  -8   8    1.31    0.95 
   3  -8   9    2.98    1.34 
   3  -8   9    3.41    1.50 
   3  -8  10    4.89    1.81 
   3  -8  10    0.76    0.81 
  -3   7  11    3.67    1.63 
  -3   7  10    0.46    0.39 
  -3   7   9    2.63    1.36 
  -3   7   8    1.12    0.90 
  -3   7   7    2.75    0.72 
  -3   7   7    2.85    1.14 
  -3   7   6   83.66    3.71 
  -3   7   6  130.79    7.62 
  -3   7   5    0.60    0.41 
  -3   7   5    1.75    0.61 
  -3   7   4   31.71    1.69 
   3  -7  -4   26.49    2.98 
   3  -7  -3   57.36    4.52 
  -3   7   2    1.61    0.79 
   3  -7  -2    1.84    0.80 
  -3   7   2    1.33    0.44 
  -3   7   1    2.69    0.92 
   3  -7  -1    3.49    0.48 
   3  -7  -1    4.55    1.25 
   3  -7   0    0.22    0.44 
  -3   7   0    0.06    0.28 
   3  -7   1   46.53    4.21 
   3  -7   2    1.45    0.62 
   3  -7   3   14.43    2.33 
   3  -7   3   13.61    0.93 
   3  -7   3   12.83    1.88 
   3  -7   4    0.14    0.20 
   3  -7   4   -0.37    0.57 
   3  -7   4   -0.18    0.19 
  -3   7  -4    0.28    0.22 
  -3   7  -5    7.98    1.24 
   3  -7   5   11.57    2.22 
   3  -7   5    9.30    1.95 
   3  -7   5    9.66    1.11 
  -3   7  -6    1.55    0.56 
   3  -7   6    0.88    0.86 
   3  -7   6    1.69    0.54 
   3  -7   6    2.65    1.16 
   3  -7   7    0.01    0.66 
   3  -7   7    0.42    0.20 
   3  -7   7    0.94    0.67 
  -3   7  -7    1.19    0.52 
   3  -7   8    2.06    1.05 
   3  -7   8    0.07    0.84 
   3  -7   9    1.57    0.97 
   3  -7   9    1.16    0.91 
   3  -7  10    5.84    1.95 
   3  -7  11    0.67    0.86 
  -3   6  11    1.69    1.22 
  -3   6  10    0.31    0.41 
  -3   6   9   29.64    3.84 
  -3   6   8    6.30    1.72 
  -3   6   7   -0.28    0.39 
  -3   6   6  108.10    6.70 
  -3   6   5    0.06    0.15 
  -3   6   5    0.17    0.42 
  -3   6   4   29.54    3.36 
  -3   6   4   24.52    1.48 
   3  -6  -4   26.91    2.90 
  -3   6   3    4.59    1.27 
   3  -6  -3    4.04    1.10 
  -3   6   3    2.98    0.44 
   3  -6  -2    4.38    1.20 
  -3   6   2    2.31    0.82 
   3  -6  -1   94.19    5.53 
   3  -6  -1   86.88    2.02 
   3  -6   0   47.80    4.09 
   3  -6   1   10.84    1.90 
  -3   6  -1    9.53    1.68 
   3  -6   2   26.16    2.90 
   3  -6   2   24.25    2.27 
   3  -6   3    0.44    0.30 
   3  -6   3    1.05    0.59 
  -3   6  -3    1.27    0.56 
   3  -6   3    0.38    0.33 
  -3   6  -3    0.65    0.25 
   3  -6   4    7.55    1.66 
   3  -6   4    7.29    1.59 
  -3   6  -4    4.33    0.79 
  -3   6  -4    8.45    1.66 
   3  -6   4    5.63    0.78 
   3  -6   5   23.15    2.93 
   3  -6   5   24.31    3.09 
   3  -6   5   19.84    2.97 
   3  -6   5   17.86    1.55 
  -3   6  -5   21.35    2.04 
   3  -6   6   -0.18    0.58 
   3  -6   6    0.40    0.36 
  -3   6  -6    0.28    0.58 
   3  -6   6   -0.27    0.25 
   3  -6   7    4.40    0.93 
  -3   6  -7    4.83    1.35 
   3  -6   7    5.71    1.65 
   3  -6   7    4.60    1.40 
   3  -6   8    7.40    1.94 
  -3   6  -8    5.42    1.63 
   3  -6   9    0.15    0.48 
   3  -6  10    3.42    1.46 
   3  -6  11    0.84    0.75 
   3  -6  12    2.58    1.38 
  -3   5  12    9.09    2.37 
  -3   5  11    0.73    0.89 
  -3   5  10    3.05    1.40 
  -3   5   9    8.71    2.08 
  -3   5   8    0.01    0.71 
  -3   5   7   -0.12    0.23 
  -3   5   6    0.01    0.47 
  -3   5   5    2.99    0.97 
  -3   5   5    2.51    0.81 
   3  -5  -4    1.05    0.59 
  -3   5   4    1.91    0.76 
  -3   5   4    0.99    0.58 
   3  -5  -3    2.94    0.89 
   3  -5  -2    0.39    0.16 
   3  -5  -2    0.38    0.29 
   3  -5  -1    0.98    0.21 
  -3   5   1    0.52    0.32 
   3  -5  -1    1.32    0.64 
   3  -5   0   14.18    2.10 
  -3   5   0   10.34    1.36 
   3  -5   1  125.68    5.99 
  -3   5  -1   92.39    4.84 
   3  -5   2   16.33    2.14 
  -3   5  -2   17.40    2.30 
   3  -5   2   12.76    1.86 
   3  -5   3    4.86    1.19 
   3  -5   3    6.91    1.48 
   3  -5   3    5.00    0.66 
  -3   5  -3    5.12    0.72 
  -3   5  -3    5.84    1.26 
   3  -5   4    7.81    1.69 
  -3   5  -4    6.26    1.35 
   3  -5   4    6.95    1.45 
   3  -5   4    8.42    1.00 
   3  -5   5    0.59    0.32 
   3  -5   5    0.59    0.37 
  -3   5  -5    1.77    0.76 
   3  -5   5    0.85    0.45 
   3  -5   6    2.78    1.01 
   3  -5   6    1.23    0.55 
   3  -5   6    2.40    0.65 
   3  -5   7   27.98    3.55 
   3  -5   7   22.49    2.12 
   3  -5   8    1.74    0.92 
   3  -5   9   -0.48    0.72 
   3  -5  10    0.39    0.72 
   3  -5  11    1.06    0.81 
   3  -5  12   -1.40    0.96 
  -3   4  12    3.77    1.69 
  -3   4  11    0.70    0.86 
  -3   4  10    3.15    1.36 
  -3   4   9   17.74    2.83 
  -3   4   8   -0.23    0.30 
  -3   4   7   11.62    2.05 
  -3   4   6    0.43    0.42 
  -3   4   6   -0.30    0.46 
  -3   4   5    1.11    0.57 
  -3   4   5   -0.03    0.32 
  -3   4   4   13.29    1.83 
   3  -4  -3    0.21    0.22 
   3  -4  -3    0.20    0.20 
  -3   4   3    0.01    0.14 
   3  -4  -2   24.30    2.39 
   3  -4  -2   20.14    1.54 
   3  -4  -1   17.07    1.96 
   3  -4  -1   18.56    1.12 
  -3   4   1   12.64    1.72 
   3  -4   0   23.38    2.39 
  -3   4   0   24.09    2.37 
  -3   4   0   18.56    0.82 
   3  -4   1   67.48    4.08 
  -3   4  -1   66.88    3.74 
   3  -4   1   75.98    4.15 
   3  -4   2   90.43    5.24 
   3  -4   2   82.69    4.45 
  -3   4  -2   96.51    4.88 
   3  -4   3   14.33    1.85 
  -3   4  -3   11.01    1.59 
   3  -4   3    8.10    1.63 
   3  -4   3   14.51    1.19 
   3  -4   4  107.23    5.23 
   3  -4   4   99.18    6.21 
   3  -4   4   86.56    3.39 
  -3   4  -4  103.72    5.11 
   3  -4   5   38.73    3.41 
   3  -4   5   38.33    3.36 
   3  -4   5   31.61    2.26 
  -3   4  -5   35.11    3.18 
   3  -4   6   34.97    3.52 
  -3   4  -6   29.99    3.21 
   3  -4   6   22.98    2.08 
  -3   4  -7    4.61    1.29 
   3  -4   7    2.06    0.66 
   3  -4   7    2.51    1.04 
   3  -4   8    7.90    1.77 
   3  -4   9   -0.60    0.52 
   3  -4  10    1.67    0.89 
   3  -4  11    9.87    2.27 
   3  -4  12    0.76    0.92 
   3  -4  13    0.14    0.27 
  -3   3  12   -0.09    0.25 
  -3   3  11    2.54    1.17 
  -3   3  10    2.06    1.13 
  -3   3   9    0.26    0.15 
  -3   3   8   -0.13    0.83 
  -3   3   7    3.94    1.15 
  -3   3   6    2.31    0.81 
  -3   3   6    3.82    1.02 
  -3   3   5   12.01    1.83 
   3  -3  -5   15.11    2.08 
  -3   3   4  159.69    6.50 
   3  -3  -4  179.69    6.69 
  -3   3   3   15.64    1.83 
   3  -3  -3   15.20    1.65 
   3  -3  -2  346.22    6.99 
   3  -3  -2  431.09    9.10 
   3  -3  -1  306.94    7.84 
   3  -3  -1  272.13    5.16 
   3  -3   0   41.86    2.88 
  -3   3   0   43.89    3.35 
  -3   3   0   42.17    1.75 
  -3   3  -1   43.87    2.71 
   3  -3   1   43.41    3.00 
  -3   3  -1   37.44    2.68 
  -3   3  -1   45.29    3.44 
  -3   3  -1   52.63    1.92 
   3  -3   1   48.88    3.42 
   3  -3   2    2.85    0.95 
   3  -3   2    3.79    0.83 
  -3   3  -2    2.13    0.61 
   3  -3   3   95.09    4.48 
   3  -3   3   79.84    5.28 
   3  -3   3   95.05    3.30 
  -3   3  -3   79.67    3.86 
   3  -3   4   15.48    1.44 
   3  -3   4   15.04    1.92 
   3  -3   4   16.34    1.92 
  -3   3  -4   12.70    1.65 
   3  -3   4   18.00    2.66 
   3  -3   5    0.11    0.12 
   3  -3   5    0.71    0.50 
  -3   3  -5    0.63    0.41 
   3  -3   6   18.24    1.87 
  -3   3  -6   14.66    2.10 
   3  -3   6   19.25    2.33 
  -3   3  -7   10.10    1.75 
   3  -3   7   12.90    1.69 
   3  -3   8    7.44    1.58 
   3  -3   9    0.00    0.24 
   3  -3  10   29.03    3.51 
   3  -3  11   12.32    2.38 
   3  -3  12   -0.09    0.54 
   3  -3  13    1.00    1.05 
  -3   2  13    0.55    0.60 
  -3   2  12    1.34    0.79 
  -3   2  11    0.25    0.35 
  -3   2  10    5.39    1.59 
  -3   2   9    2.58    1.16 
  -3   2   8    1.23    0.64 
   3  -2  -7   90.40    5.50 
   3  -2  -7  104.35    6.64 
  -3   2   6   57.06    4.05 
   3  -2  -6   56.99    4.50 
  -3   2   5    5.18    1.17 
   3  -2  -5    4.85    1.20 
  -3   2   4  145.15    5.67 
   3  -2  -4  134.88    5.73 
  -3   2   3   14.48    1.62 
   3  -2  -3   13.35    1.56 
   3  -2  -2  271.63    6.51 
  -3   2   2  295.14    7.07 
   3  -2  -2  288.41    6.96 
   3  -2  -1    7.65    1.14 
  -3   2   1    8.69    1.24 
   3  -2  -1    9.06    1.05 
  -3   2   1    8.79    1.05 
   3  -2   0  104.51    4.00 
  -3   2   0  100.06    4.06 
  -3   2   0   91.40    5.11 
  -3   2   0   84.39    3.23 
   3  -2   1  143.71    5.08 
  -3   2  -1  149.45    4.81 
  -3   2  -1  164.64    4.59 
  -3   2  -1  169.25    3.88 
  -3   2  -1  125.42    6.04 
   3  -2   2   23.95    1.96 
  -3   2  -2   24.92    1.64 
  -3   2  -2   22.33    1.81 
   3  -2   3  144.55    4.67 
   3  -2   3  169.87    5.45 
   3  -2   3  151.09    4.41 
  -3   2  -3  148.77    4.78 
   3  -2   4   42.73    2.87 
  -3   2  -4   38.25    2.72 
   3  -2   4   44.10    2.96 
   3  -2   4   34.84    2.27 
   3  -2   5    0.77    0.34 
   3  -2   5    0.25    0.20 
  -3   2  -5    0.11    0.16 
   3  -2   6    2.72    0.74 
  -3   2  -6    2.74    0.80 
   3  -2   6    4.22    1.01 
   3  -2   7    0.10    0.35 
  -3   2  -7    0.25    0.23 
   3  -2   7    0.68    0.42 
   3  -2   8   -0.84    0.51 
  -3   2  -8   -1.54    0.97 
   3  -2   9   12.86    2.22 
   3  -2  10    4.45    1.41 
   3  -2  11    6.84    1.77 
   3  -2  12    2.37    1.11 
   3  -2  13   -1.00    0.47 
  -3   1  13    5.45    1.91 
  -3   1  12    1.05    0.77 
  -3   1  11    1.34    0.91 
  -3   1  10    7.85    1.95 
  -3   1   9    3.43    1.09 
  -3   1   8   19.90    2.74 
  -3   1   7   23.40    2.76 
   3  -1  -7   22.80    2.69 
   3  -1  -7   19.57    2.84 
   3  -1  -6   42.70    3.87 
  -3   1   6   21.92    2.55 
   3  -1  -5    1.21    0.69 
  -3   1   5    1.05    0.54 
   3  -1  -4    2.67    0.79 
  -3   1   4    2.43    0.67 
   3  -1  -3    0.25    0.34 
  -3   1   3    0.03    0.08 
  -3   1   3   -0.16    0.20 
   3  -1  -3    0.01    0.38 
   3  -1  -2    2.93    0.69 
  -3   1   2    3.79    0.80 
  -3   1   2    4.34    0.79 
  -3   1   2    3.44    0.75 
  -3   1   1   91.50    3.63 
  -3   1   1   75.99    2.89 
   3  -1  -1   76.50    3.52 
  -3   1   1   74.04    3.52 
   3  -1  -1   74.60    3.08 
   3  -1   0   78.64    3.08 
  -3   1   0   83.42    3.65 
  -3   1   0   72.01    4.66 
   3  -1   1    7.73    0.95 
  -3   1  -1    6.79    0.89 
  -3   1  -1    5.08    1.25 
  -3   1  -1    5.81    0.69 
  -3   1  -2  458.12    6.63 
  -3   1  -2  457.09    7.44 
   3  -1   3    5.71    0.89 
   3  -1   3    6.79    0.95 
   3  -1   3    5.38    0.83 
  -3   1  -3    4.30    0.78 
  -3   1  -3    6.11    0.92 
   3  -1   4    2.57    0.65 
   3  -1   4    2.14    0.54 
  -3   1  -4    2.37    0.58 
   3  -1   4    1.85    0.54 
   3  -1   5   76.93    3.63 
  -3   1  -5   66.07    3.39 
   3  -1   5   65.00    3.47 
   3  -1   6   96.28    4.57 
  -3   1  -6   91.54    4.41 
   3  -1   6   84.83    4.30 
  -3   1  -7   -0.08    0.29 
   3  -1   7    0.56    0.37 
   3  -1   8    2.10    0.78 
  -3   1  -8    0.84    0.40 
   3  -1   9   13.99    2.15 
   3  -1  10    0.74    0.85 
   3  -1  11   -0.02    0.26 
   3  -1  12    1.28    0.80 
   3  -1  13    0.06    0.31 
  -3   0  13    8.12    2.48 
  -3   0  12    2.60    1.27 
  -3   0  11   21.55    3.49 
  -3   0  10    1.36    0.57 
  -3   0   9   10.23    1.98 
  -3   0   8   69.00    5.05 
  -3   0   7   44.39    3.70 
   3   0  -7   54.67    4.19 
   3   0  -7   47.25    4.31 
   3   0  -6    2.03    0.86 
  -3   0   6    3.02    0.90 
   3   0  -6    3.14    0.91 
   3   0  -5    5.24    1.26 
  -3   0   5    6.03    1.20 
   3   0  -5    5.08    1.09 
  -3   0   4   13.54    1.59 
   3   0  -4   13.81    1.62 
   3   0  -4   15.22    2.00 
  -3   0   4   12.58    1.95 
   3   0  -3    3.79    0.93 
  -3   0   3    3.97    0.99 
   3   0  -3    5.27    0.90 
  -3   0   3    5.19    0.90 
  -3   0   2   59.96    2.68 
   3   0  -2   51.07    2.40 
   3   0  -2   59.16    3.54 
  -3   0   2   55.55    3.58 
  -3   0   1   90.72    2.77 
  -3   0   1   86.75    4.32 
  -3   0   1   80.27    3.07 
  -3   0   0  691.00    8.42 
  -3   0   0  659.06    6.10 
  -3   0   0  605.08   11.35 
  -3   0   0  603.44   14.03 
   3   0   1  135.55    3.31 
  -3   0  -1  132.01    3.36 
  -3   0  -1  128.37    2.35 
  -3   0  -1  130.63    6.72 
  -3   0  -2   74.51    5.31 
  -3   0  -2   75.95    2.03 
   3   0   3  248.26    4.78 
  -3   0  -3  250.52    4.53 
   3   0   3  262.99    4.85 
   3   0   4   81.39    3.06 
   3   0   4   73.18    2.99 
   3   0   4   76.39    3.73 
  -3   0  -4   71.75    2.88 
   3   0   5   60.46    3.04 
   3   0   5   64.67    3.63 
  -3   0  -5   56.41    3.03 
   3   0   6    8.33    1.28 
  -3   0  -6    8.03    1.23 
   3   0   6    7.71    1.29 
  -3   0  -7   22.35    2.28 
   3   0   7   22.89    2.32 
   3   0   8    4.31    1.10 
  -3   0  -8    3.81    1.00 
  -3   0  -9    2.50    0.88 
   3   0   9    3.33    1.03 
   3   0  10    0.38    0.38 
   3   0  11   -0.36    0.17 
   3   0  12    0.06    0.27 
   3   0  13   -0.61    0.58 
  -3  -1  13    2.04    1.22 
  -3  -1  12    0.03    0.17 
  -3  -1  11    0.79    0.68 
  -3  -1  10   -0.88    0.66 
  -3  -1   9    4.65    1.43 
  -3  -1   8   74.07    5.42 
  -3  -1   7    0.10    0.20 
   3   1  -7    2.01    0.79 
   3   1  -6    8.41    1.78 
   3   1  -6    6.17    1.27 
  -3  -1   6    6.39    1.38 
  -3  -1   5   13.40    1.86 
   3   1  -5   13.16    1.73 
   3   1  -5   17.47    2.38 
   3   1  -4    6.62    1.37 
  -3  -1   4    5.20    1.04 
   3   1  -4    6.41    1.10 
  -3  -1   3    4.73    0.88 
   3   1  -3    4.81    0.85 
   3   1  -3    4.31    1.09 
  -3  -1   2  135.28    3.93 
   3   1  -2  132.08    3.89 
   3   1  -2  124.33    5.42 
  -3  -1   1   18.82    1.22 
   3   1  -1   19.09    1.20 
  -3  -1   0  187.27    3.90 
  -3  -1   0  192.21    2.74 
  -3  -1   0  204.52    8.45 
  -3  -1  -1    1.17    0.24 
  -3  -1  -1    2.15    0.86 
  -3  -1  -2   28.41    3.25 
   3   1   2   39.74    1.20 
   3   1   3   28.03    1.23 
   3   1   3   36.59    1.38 
   3   1   4    2.98    0.49 
   3   1   4    1.98    0.91 
   3   1   4    2.56    0.51 
  -3  -1  -4    2.60    0.52 
   3   1   5    7.21    1.86 
   3   1   5    9.78    1.19 
   3   1   5    8.44    1.34 
  -3  -1  -5    9.05    1.11 
   3   1   6   16.96    1.82 
  -3  -1  -6   21.44    1.92 
   3   1   6   16.64    3.09 
   3   1   7    2.63    0.78 
  -3  -1  -7    1.54    0.64 
   3   1   8    2.24    0.78 
  -3  -1  -8    3.19    0.90 
   3   1   9   -0.40    0.37 
  -3  -1  -9    0.89    0.52 
   3   1  10    1.22    0.67 
   3   1  11   -0.56    0.36 
   3   1  12    1.39    0.89 
   3   1  13    1.53    1.48 
  -3  -2  13   -0.07    1.00 
  -3  -2  12    3.46    1.52 
  -3  -2  11    0.64    0.46 
  -3  -2  10    4.48    1.55 
  -3  -2   9   22.04    3.29 
  -3  -2   8   13.24    2.40 
  -3  -2   7    0.61    0.52 
   3   2  -7    0.38    0.45 
   3   2  -6    4.46    1.52 
  -3  -2   6    3.88    1.11 
   3   2  -6    4.21    1.10 
   3   2  -5    3.30    1.07 
  -3  -2   5    2.76    0.89 
   3   2  -5    2.21    0.75 
   3   2  -4  177.19    5.92 
   3   2  -4  185.24    7.83 
  -3  -2   3    1.92    0.58 
   3   2  -3    1.75    0.57 
   3   2  -3    1.69    0.73 
   3   2  -2   45.26    3.62 
  -3  -2   2   43.86    2.44 
   3   2  -2   37.39    2.12 
  -3  -2   1   25.35    1.52 
   3   2  -1   22.25    1.38 
  -3  -2   0   46.19    1.49 
   3   2   0   35.88    1.30 
  -3  -2   0   47.23    4.18 
  -3  -2  -1   19.75    2.70 
  -3  -2  -2   40.07    4.14 
   3   2   2   39.14    3.93 
   3   2   3    0.76    0.19 
   3   2   3   -0.08    0.24 
   3   2   4   -0.05    0.31 
   3   2   4    0.31    0.18 
   3   2   5    0.18    0.15 
  -3  -2  -5    0.56    0.49 
   3   2   5    0.27    0.17 
   3   2   6    4.65    1.62 
   3   2   6    4.23    0.86 
  -3  -2  -6    3.40    0.78 
   3   2   7    2.56    0.75 
  -3  -2  -7    1.73    0.64 
   3   2   7    1.73    1.31 
   3   2   8    3.05    0.91 
  -3  -2  -8    1.71    0.61 
   3   2   9   -0.09    0.45 
   3   2  10    6.55    1.57 
   3   2  11    0.90    0.60 
   3   2  12   -0.48    0.77 
  -3  -3  12    1.72    1.06 
  -3  -3  11    1.21    0.85 
  -3  -3  10    1.53    0.90 
  -3  -3   9    4.40    1.37 
  -3  -3   8    3.68    1.32 
  -3  -3   7    8.05    1.83 
   3   3  -6   53.88    3.99 
  -3  -3   6   45.91    4.74 
   3   3  -5    2.92    1.07 
   3   3  -5    4.23    0.99 
  -3  -3   5    4.88    1.13 
  -3  -3   5    6.19    1.64 
  -3  -3   4    8.73    1.43 
   3   3  -4    7.64    1.27 
   3   3  -4    5.98    1.44 
  -3  -3   3    6.08    1.08 
   3   3  -3    5.10    1.32 
   3   3  -3    5.64    1.01 
  -3  -3   2  104.43    3.92 
   3   3  -2  111.90    3.87 
  -3  -3   1    0.05    0.13 
  -3  -3   1    0.25    0.20 
   3   3  -1    0.28    0.20 
   3   3   0   10.15    0.90 
  -3  -3   0   11.94    2.14 
  -3  -3  -1    8.37    1.81 
   3   3   1    7.57    0.66 
   3   3   2   23.90    1.06 
   3   3   2   20.82    2.70 
   3   3   2   28.07    1.16 
   3   3   3   22.47    1.22 
  -3  -3  -3   19.83    2.04 
   3   3   3   18.05    2.87 
   3   3   4   19.03    3.01 
  -3  -3  -4   19.69    2.18 
   3   3   4   19.49    1.36 
  -3  -3  -5    2.64    0.80 
   3   3   5    1.99    0.53 
   3   3   5    1.67    0.95 
   3   3   6    0.56    0.76 
   3   3   6   -0.01    0.05 
   3   3   6    0.56    0.20 
   3   3   7   39.34    4.99 
   3   3   7   47.44    2.29 
   3   3   7   51.19    3.30 
   3   3   8   26.48    4.32 
   3   3   8   31.94    2.92 
   3   3   8   26.65    1.95 
   3   3   9    5.46    1.31 
   3   3   9    5.07    2.44 
   3   3  10   10.93    2.00 
   3   3  10    7.23    2.61 
   3   3  11    1.59    0.82 
   3   3  11    3.64    2.59 
  -3  -4  12    1.84    1.11 
  -3  -4  11    2.95    1.33 
  -3  -4  10    5.01    1.65 
  -3  -4   9    0.13    0.31 
  -3  -4   8    1.15    0.82 
  -3  -4   7    3.24    1.10 
  -3  -4   6    0.56    0.39 
  -3  -4   6    0.91    0.62 
   3   4  -6    0.75    0.41 
  -3  -4   5    3.10    1.20 
  -3  -4   5    2.36    0.75 
   3   4  -5    2.19    0.76 
   3   4  -4    0.58    0.40 
  -3  -4   4    0.59    0.37 
   3   4  -4    1.18    0.60 
  -3  -4   3    9.04    1.91 
  -3  -4   3    7.73    1.37 
   3   4  -3    9.22    1.34 
  -3  -4   2   56.53    3.41 
   3   4  -2   56.67    3.16 
  -3  -4   1   10.28    1.27 
   3   4  -1   10.10    1.23 
  -3  -4   1    8.65    1.80 
   3   4   0   76.20    3.04 
  -3  -4   0   76.30    5.71 
  -3  -4  -1   11.77    0.73 
  -3  -4  -1    7.88    1.77 
   3   4   1    7.40    0.84 
  -3  -4  -2   19.87    2.10 
   3   4   2   18.45    2.71 
   3   4   2   20.25    1.32 
  -3  -4  -3   11.21    1.61 
   3   4   3    8.65    0.92 
   3   4   3    8.61    1.99 
   3   4   4   47.27    4.92 
  -3  -4  -4   47.10    3.56 
   3   4   5   56.04    2.86 
  -3  -4  -5   53.53    3.74 
   3   4   6    0.53    0.87 
   3   4   6    0.22    0.32 
   3   4   7   17.80    1.97 
   3   4   7   17.17    3.28 
   3   4   8   32.13    2.81 
   3   4   8   26.69    4.37 
   3   4   9   21.09    4.11 
   3   4   9   29.59    3.02 
   3   4  10    1.94    1.72 
   3   4  10    1.55    0.75 
   3   4  11    0.24    1.04 
  -3  -5  12    1.60    1.51 
  -3  -5  11    2.12    1.15 
  -3  -5  10    2.11    1.08 
  -3  -5   9   -0.71    0.67 
  -3  -5   8    0.00    0.85 
  -3  -5   7    3.87    1.28 
  -3  -5   6    3.51    1.43 
  -3  -5   6    4.01    1.21 
  -3  -5   5    0.71    0.63 
  -3  -5   5    1.14    0.59 
   3   5  -5    0.98    0.53 
  -3  -5   4    2.90    1.18 
   3   5  -4    3.54    0.96 
  -3  -5   4    2.04    0.76 
  -3  -5   3    3.84    1.33 
   3   5  -3    2.31    0.80 
  -3  -5   3    2.62    0.82 
  -3  -5   2    6.50    1.62 
  -3  -5   2    5.19    1.09 
   3   5  -2    7.27    1.24 
   3   5  -1    3.19    0.78 
  -3  -5   1    2.28    1.01 
  -3  -5   1    2.76    1.30 
   3   5   0    0.73    0.28 
  -3  -5   0    0.29    0.63 
  -3  -5   0    1.09    0.35 
  -3  -5   0    1.80    0.97 
  -3  -5  -1   41.53    1.89 
  -3  -5  -1   35.47    3.91 
   3   5   2   30.46    2.06 
  -3  -5  -2   31.94    2.79 
   3   5   3    5.64    1.51 
   3   5   3    8.32    1.10 
   3   5   3    5.68    0.85 
  -3  -5  -3    7.22    1.36 
   3   5   4   59.29    2.93 
  -3  -5  -4   54.25    4.01 
   3   5   4   55.36    5.48 
   3   5   5    6.75    1.96 
  -3  -5  -5    6.70    1.38 
   3   5   5   11.09    1.33 
   3   5   6   10.34    2.55 
   3   5   6    9.90    1.33 
   3   5   7   -0.23    0.95 
   3   5   7    1.34    0.45 
   3   5   8    3.88    2.06 
   3   5   8    5.35    1.14 
   3   5   9    1.54    1.36 
   3   5   9    0.51    0.45 
   3   5  10    1.02    1.29 
   3   5  11    0.34    1.02 
  -3  -6  11    0.17    0.57 
  -3  -6  10    1.43    0.73 
  -3  -6   9    4.61    1.52 
  -3  -6   8    7.58    1.86 
  -3  -6   7    4.76    1.73 
  -3  -6   7    0.65    0.53 
  -3  -6   6    1.19    1.11 
  -3  -6   6   -0.21    0.26 
  -3  -6   5   12.89    2.39 
  -3  -6   5    9.12    2.20 
  -3  -6   4    2.27    1.19 
  -3  -6   4    2.40    0.92 
   3   6  -4    1.80    0.74 
  -3  -6   3   10.16    2.27 
  -3  -6   3    7.57    1.47 
   3   6  -3    7.47    1.48 
  -3  -6   2  187.67    8.81 
   3   6  -2  221.69    7.71 
  -3  -6   1   34.18    2.60 
  -3  -6   1   32.06    3.81 
  -3  -6   1   28.43    3.87 
   3   6  -1   30.53    2.63 
  -3  -6   0   39.51    2.47 
  -3  -6   0   44.84    4.43 
  -3  -6   0   35.12    4.17 
   3   6   0   32.53    2.55 
  -3  -6  -1   44.71    2.46 
  -3  -6  -1   48.20    5.07 
   3   6   1   38.98    2.66 
   3   6   2    5.12    0.93 
  -3  -6  -2    5.44    1.22 
   3   6   3   10.02    1.38 
   3   6   3    9.24    1.22 
  -3  -6  -3    9.00    1.61 
   3   6   4   13.48    1.58 
   3   6   4   10.91    1.39 
  -3  -6  -4   13.28    2.03 
   3   6   4   11.67    2.30 
   3   6   5   15.57    1.70 
  -3  -6  -5   16.31    2.25 
   3   6   5   16.70    3.15 
   3   6   6    0.26    0.57 
   3   6   6    0.29    0.17 
   3   6   7    0.33    0.14 
   3   6   7   -0.22    0.87 
   3   6   8    1.01    1.20 
   3   6   9    1.43    1.53 
   3   6  10    0.92    1.19 
   3   6  11   -2.41    2.34 
  -3  -7  10    2.52    1.27 
  -3  -7   9   -0.42    0.50 
  -3  -7   8    1.49    0.69 
  -3  -7   7    2.56    1.23 
  -3  -7   7    3.40    1.24 
  -3  -7   6    1.77    1.46 
  -3  -7   6    1.58    0.88 
  -3  -7   5   35.11    4.01 
  -3  -7   5   45.19    5.12 
  -3  -7   4   14.37    2.31 
  -3  -7   4   15.90    3.07 
  -3  -7   3    7.20    2.03 
   3   7  -3    8.69    1.69 
  -3  -7   3    7.15    1.80 
   3   7  -2   61.00    4.35 
  -3  -7   2   63.06    5.61 
  -3  -7   2   54.76    5.48 
  -3  -7   1   29.28    2.61 
  -3  -7   1   31.05    3.84 
  -3  -7   1   26.64    3.89 
   3   7  -1   26.05    2.64 
  -3  -7   0   62.38    3.46 
   3   7   0   46.28    3.36 
  -3  -7   0   59.75    5.24 
  -3  -7   0   52.80    5.42 
  -3  -7  -1    3.59    0.72 
   3   7   1    3.58    0.88 
  -3  -7  -1    2.95    0.94 
  -3  -7  -1    1.29    0.66 
  -3  -7  -2    0.01    0.15 
   3   7   2    0.30    0.30 
  -3  -7  -2    0.24    0.37 
  -3  -7  -3    5.81    1.36 
   3   7   3    5.77    1.15 
   3   7   3    5.85    1.10 
  -3  -7  -4   -0.26    0.24 
   3   7   4   -0.40    0.38 
   3   7   4   -0.63    0.36 
  -3  -7  -5    0.73    0.75 
   3   7   5    0.63    0.33 
   3   7   5    0.89    0.74 
   3   7   6   -0.31    0.17 
   3   7   6   -0.92    1.22 
   3   7   7    0.12    0.40 
   3   7   8    0.63    0.74 
   3   7   9   -2.80    1.89 
  -3  -8  10   -0.61    0.68 
  -3  -8   9   -0.66    0.68 
  -3  -8   8    6.39    2.05 
  -3  -8   7    3.96    1.51 
  -3  -8   7    4.84    1.84 
  -3  -8   6    1.88    0.95 
  -3  -8   6    3.26    1.28 
  -3  -8   5    6.03    2.33 
  -3  -8   5    9.21    2.02 
  -3  -8   4    0.19    0.81 
  -3  -8   3    2.41    1.53 
  -3  -8   3    0.27    0.45 
  -3  -8   3    0.90    0.74 
  -3  -8   2    2.19    1.50 
  -3  -8   2    1.46    0.55 
  -3  -8   2    2.07    1.27 
  -3  -8   1   -0.32    0.50 
  -3  -8   1   -1.13    0.54 
   3   8  -1    0.71    0.65 
  -3  -8   1    0.41    0.58 
  -3  -8   0    0.66    0.40 
   3   8   0    0.74    0.64 
  -3  -8   0    1.72    1.46 
  -3  -8  -1   -0.27    0.11 
   3   8   1    0.36    0.67 
  -3  -8  -1   -0.53    0.58 
  -3  -8  -1   -0.33    0.61 
  -3  -8  -2    0.47    0.54 
  -3  -8  -2    1.29    0.72 
  -3  -8  -3    0.38    0.55 
   3   8   3    0.02    0.40 
  -3  -8  -4    1.34    0.59 
   3   8   4    0.15    0.31 
  -3  -8  -5    0.26    0.52 
   3   8   6   -2.11    1.30 
  -3  -9   9   -0.09    0.61 
  -3  -9   8    3.24    1.51 
  -3  -9   7   -0.19    1.31 
  -3  -9   7    0.82    0.95 
  -3  -9   6    6.68    2.50 
  -3  -9   6    6.75    1.97 
  -3  -9   5    2.25    1.53 
  -3  -9   4    0.10    0.48 
  -3  -9   4    2.24    1.03 
  -3  -9   3   -0.26    0.32 
  -3  -9   3    0.80    1.12 
  -3  -9   2   -0.01    0.47 
  -3  -9   2    0.53    0.25 
  -3  -9   1    0.46    0.67 
  -3  -9   1   -0.90    0.52 
  -3  -9   0    0.29    0.35 
  -3  -9   0    0.63    1.00 
  -3  -9  -1    0.09    0.42 
  -3  -9  -1   -0.20    0.26 
  -3  -9  -2   -0.66    0.74 
  -3  -9  -2   -0.08    0.67 
  -3  -9  -3    0.17    0.32 
  -3  -9  -4    1.17    0.70 
  -3  -9  -5    1.84    0.98 
  -3 -10   7    1.90    1.74 
  -3 -10   6    1.34    1.49 
  -3 -10   6    0.47    0.52 
  -3 -10   5   -0.47    0.86 
  -3 -10   5   -1.19    0.78 
  -3 -10   4   -0.09    0.57 
  -3 -10   4    2.16    1.00 
  -3 -10   3   -1.54    1.71 
  -3 -10   2    0.06    0.78 
  -3 -10   1    0.46    0.85 
  -3 -10   0    4.66    1.40 
  -3 -10   0    1.56    1.00 
  -3 -10  -1    0.15    0.94 
  -3 -10  -1    0.69    0.71 
  -3 -10  -2    2.11    1.06 
  -3 -10  -2    4.61    1.65 
  -3 -10  -3    5.77    1.59 
  -3 -10  -3    3.96    1.77 
  -3 -10  -4   -1.07    0.76 
  -3 -11   6    1.02    1.52 
  -3 -11   5    3.69    2.31 
  -3 -11   4    1.59    1.53 
  -3 -11   3    5.63    2.40 
  -3 -11   2   -0.20    1.24 
  -3 -11   1   -0.47    1.27 
  -3 -11   1    0.33    0.51 
  -3 -11   0    1.45    1.25 
  -3 -11   0    1.17    0.77 
  -3 -11  -1    1.64    1.27 
  -3 -11  -2    0.16    0.57 
   4 -12  -4    1.20    0.85 
   4 -12  -3    1.16    1.13 
   4 -12  -2    0.11    0.53 
   4 -12  -1    0.91    1.74 
   4 -12   0   -0.92    1.07 
   4 -12   1    0.77    0.89 
   4 -12   2    0.67    1.09 
   4 -12   3    0.78    1.02 
   4 -11  -5   -0.11    0.59 
  -4  11   5    0.17    1.18 
   4 -11  -4   -0.83    0.69 
   4 -11  -3   -0.55    0.25 
   4 -11  -2    0.47    0.71 
   4 -11  -1    2.07    1.12 
   4 -11   0    1.25    0.87 
   4 -11   1    1.22    0.89 
   4 -11   2    3.25    1.68 
   4 -11   3   -0.94    0.88 
   4 -11   4    0.27    0.89 
   4 -11   5    1.37    1.22 
  -4  10   7    1.23    1.14 
  -4  10   6   -0.24    0.48 
   4 -10  -5   -1.11    0.79 
  -4  10   5   -2.25    1.55 
   4 -10  -4    0.78    0.37 
   4 -10  -3   -0.95    0.53 
   4 -10  -2    0.06    0.36 
   4 -10  -1    7.72    2.01 
   4 -10   0    5.55    1.74 
   4 -10   1   -0.67    0.68 
   4 -10   2    0.05    0.48 
   4 -10   3   -0.11    0.34 
   4 -10   4    1.79    1.12 
   4 -10   5   25.94    4.02 
   4 -10   6   -0.54    0.59 
   4 -10   7    1.37    0.98 
  -4   9   8   -0.40    0.44 
  -4   9   7    0.51    0.58 
  -4   9   6    0.21    0.67 
  -4   9   5   -0.32    0.91 
   4  -9  -4    2.49    1.11 
   4  -9  -3    1.90    0.94 
   4  -9  -2    1.66    0.90 
   4  -9  -1    1.42    0.81 
   4  -9   0   -1.43    0.84 
   4  -9   1   20.52    3.48 
   4  -9   2   35.10    4.34 
   4  -9   3    4.50    1.61 
   4  -9   4    7.38    2.13 
   4  -9   5    1.44    0.60 
   4  -9   5    2.04    1.23 
   4  -9   6    4.12    1.45 
   4  -9   6    3.31    1.39 
   4  -9   7    0.43    0.92 
   4  -9   7    0.59    0.69 
   4  -9   8    0.96    1.16 
   4  -9   8    1.22    1.19 
   4  -9   9    2.53    1.48 
  -4   8   9    2.12    0.98 
  -4   8   8    0.87    0.51 
  -4   8   7    2.32    1.08 
  -4   8   6    5.60    1.59 
  -4   8   5    0.06    0.18 
  -4   8   5   -1.64    0.94 
   4  -8  -4   72.56    5.57 
   4  -8  -3   20.69    3.00 
  -4   8   3   17.30    2.01 
   4  -8  -3   19.30    1.74 
   4  -8  -2   13.47    2.41 
  -4   8   2   10.50    1.42 
   4  -8  -1   95.68    6.38 
   4  -8   0    0.43    0.83 
   4  -8   1   -0.20    0.40 
   4  -8   2    2.31    1.07 
   4  -8   3   12.41    2.50 
   4  -8   4    3.54    1.39 
   4  -8   4    4.20    1.30 
   4  -8   5    0.94    0.86 
   4  -8   5   -0.23    0.49 
   4  -8   6    1.40    0.92 
   4  -8   6    1.04    0.95 
   4  -8   7    1.23    1.04 
   4  -8   7    2.02    1.24 
   4  -8   8   -0.50    0.86 
   4  -8   8    1.22    0.85 
   4  -8   9    1.27    1.28 
   4  -8   9    2.03    1.13 
   4  -8  10    0.11    0.68 
   4  -8  10    1.68    1.07 
   4  -8  10    0.09    0.95 
   4  -8  11   -1.07    1.13 
  -4   7  10    0.19    0.77 
  -4   7   9    7.06    2.06 
  -4   7   8    3.02    1.12 
  -4   7   7    3.34    0.77 
  -4   7   7    4.45    1.50 
  -4   7   6    6.28    0.94 
  -4   7   6    6.16    1.64 
  -4   7   5    2.26    0.50 
  -4   7   5    2.99    1.11 
  -4   7   4  117.76    3.07 
   4  -7  -4  111.32    5.23 
  -4   7   4  131.55    7.72 
   4  -7  -3    0.62    0.70 
   4  -7  -3    0.55    0.43 
  -4   7   3    0.10    0.09 
   4  -7  -2   12.97    2.23 
  -4   7   2   16.21    2.06 
   4  -7  -2   15.58    1.02 
  -4   7   1    0.77    0.48 
   4  -7  -1    0.84    0.57 
   4  -7   0   27.75    3.34 
   4  -7   1   41.80    4.31 
   4  -7   2    4.46    1.32 
   4  -7   3   17.09    2.77 
   4  -7   3   13.22    2.03 
   4  -7   4    6.94    1.74 
  -4   7  -4    5.15    0.66 
   4  -7   4    7.25    1.73 
  -4   7  -5    0.23    0.32 
   4  -7   5    0.48    0.81 
   4  -7   5    0.03    0.82 
   4  -7   5   -0.30    0.31 
   4  -7   6    0.38    0.43 
  -4   7  -6    0.77    0.48 
   4  -7   6    0.53    0.96 
   4  -7   6   -0.15    0.44 
   4  -7   7    0.35    0.70 
   4  -7   7    0.18    0.49 
   4  -7   8    2.91    1.54 
   4  -7   8    2.04    1.08 
   4  -7   8    3.71    1.42 
   4  -7   9   -0.31    0.42 
   4  -7   9   -1.77    1.02 
   4  -7   9    0.44    1.04 
   4  -7  10    0.03    0.35 
   4  -7  10    0.84    0.72 
   4  -7  11   -0.37    0.54 
   4  -7  11    2.13    1.22 
   4  -7  11    0.71    1.54 
  -4   6  11    0.17    0.49 
  -4   6  10   10.68    2.48 
  -4   6   9   -0.32    0.71 
  -4   6   8   20.65    3.23 
  -4   6   7   10.95    2.26 
   4  -6  -6    0.58    0.59 
  -4   6   6    0.72    0.57 
   4  -6  -5    0.67    0.65 
  -4   6   5    2.04    0.97 
   4  -6  -4    8.37    1.42 
  -4   6   4    9.69    2.02 
   4  -6  -4    9.15    1.77 
   4  -6  -3    7.70    1.09 
   4  -6  -3    6.46    1.48 
   4  -6  -2   16.00    2.39 
  -4   6   2   19.17    2.62 
   4  -6  -2   19.68    1.35 
  -4   6   2   18.84    2.20 
   4  -6  -1    3.22    1.02 
  -4   6   1    3.38    1.02 
  -4   6   1    0.74    0.34 
   4  -6   0   29.59    3.28 
  -4   6   0   36.44    3.50 
   4  -6   1    3.03    1.15 
  -4   6  -1    2.11    0.92 
  -4   6  -1    2.22    0.83 
   4  -6   2   -0.06    0.17 
  -4   6  -2    0.35    0.43 
   4  -6   3    0.30    0.30 
   4  -6   3   -0.31    0.49 
  -4   6  -4    0.53    0.23 
   4  -6   4    0.36    0.37 
   4  -6   4    0.05    0.16 
   4  -6   4    0.02    0.33 
   4  -6   5   11.26    2.13 
   4  -6   5    9.79    2.24 
   4  -6   5   10.39    1.27 
  -4   6  -5   11.90    1.54 
   4  -6   6    0.02    0.16 
   4  -6   6   -0.06    0.34 
   4  -6   7   -0.33    0.32 
   4  -6   7    0.09    0.24 
   4  -6   7   -0.54    0.46 
   4  -6   7   -0.30    0.42 
   4  -6   8    2.19    1.01 
   4  -6   8    2.56    1.08 
   4  -6   8    2.64    1.44 
   4  -6   9    0.18    0.22 
   4  -6   9    1.18    0.89 
   4  -6   9   -0.01    0.63 
   4  -6  10    1.11    0.79 
   4  -6  10    1.29    1.28 
   4  -6  11   -0.33    0.67 
   4  -6  11   -0.20    0.35 
  -4   5  11    5.41    1.77 
  -4   5  10   12.60    2.68 
  -4   5   9    0.27    0.34 
  -4   5   8    2.92    1.18 
   4  -5  -7    4.18    1.69 
  -4   5   7    3.07    1.20 
   4  -5  -6    2.67    1.11 
  -4   5   6    4.58    1.41 
   4  -5  -5    0.51    0.36 
  -4   5   5    0.44    0.43 
   4  -5  -4    0.76    0.58 
  -4   5   4    0.42    0.56 
  -4   5   4    1.07    0.72 
  -4   5   3    0.61    0.31 
   4  -5  -3    0.23    0.36 
   4  -5  -3    0.15    0.20 
   4  -5  -2   11.57    1.88 
   4  -5  -2   12.48    1.21 
   4  -5  -1   13.60    2.01 
  -4   5   1   10.11    1.78 
   4  -5   0   23.18    2.63 
  -4   5   0   19.10    2.40 
  -4   5   0   14.15    0.81 
  -4   5   0   20.97    2.53 
  -4   5  -1    7.41    1.46 
   4  -5   1    3.58    1.33 
  -4   5  -1    4.57    1.13 
   4  -5   2   23.24    2.75 
  -4   5  -2   20.90    2.52 
  -4   5  -2   16.97    0.93 
   4  -5   2   21.91    2.72 
   4  -5   3   29.95    3.07 
  -4   5  -3   22.17    2.59 
   4  -5   3   29.95    3.65 
   4  -5   4    4.95    1.21 
  -4   5  -4    3.47    1.01 
   4  -5   4    5.86    1.65 
   4  -5   4    4.96    0.84 
   4  -5   5   16.43    2.43 
  -4   5  -5   18.60    2.49 
   4  -5   5   13.53    2.61 
   4  -5   5   14.08    1.54 
   4  -5   6    4.52    1.61 
   4  -5   6    3.11    1.07 
   4  -5   6    2.45    0.89 
   4  -5   6    3.51    0.84 
   4  -5   7    3.10    1.02 
   4  -5   7    2.67    1.02 
   4  -5   7    3.55    1.24 
   4  -5   7    5.59    1.91 
   4  -5   8    2.23    1.00 
   4  -5   8    1.28    0.76 
   4  -5   8    1.54    0.52 
   4  -5   9    0.50    0.49 
   4  -5   9    1.03    0.42 
   4  -5  10    0.51    0.62 
   4  -5  10   -0.07    0.57 
   4  -5  11    0.36    0.50 
   4  -5  12   -0.57    0.58 
  -4   4  12    0.86    0.38 
  -4   4  11    1.03    0.61 
  -4   4  10    6.10    1.97 
  -4   4   9    0.74    0.57 
  -4   4   8   -0.42    0.27 
   4  -4  -7   -0.23    0.43 
  -4   4   7    0.94    0.73 
  -4   4   6   18.23    2.57 
   4  -4  -6   15.64    2.39 
  -4   4   5    0.79    0.49 
  -4   4   5    0.04    0.55 
   4  -4  -5    1.05    0.73 
  -4   4   4    1.90    0.76 
   4  -4  -4    2.35    0.72 
  -4   4   4    1.63    0.53 
   4  -4  -3   23.50    2.11 
   4  -4  -3   25.69    2.65 
   4  -4  -2   20.16    1.74 
   4  -4  -2   17.63    2.15 
   4  -4  -1  159.91    6.55 
  -4   4   1  148.18    6.48 
  -4   4   1  139.22    6.45 
   4  -4   0   70.07    4.29 
  -4   4   0   68.79    4.18 
  -4   4   0   83.18    2.57 
  -4   4   0   72.34    2.56 
   4  -4   1   69.22    4.55 
  -4   4  -1   72.31    4.37 
  -4   4  -1   57.38    3.63 
  -4   4  -1   68.78    2.44 
  -4   4  -1   63.59    4.60 
  -4   4  -2   28.18    2.77 
   4  -4   2   28.00    3.21 
   4  -4   3    6.15    1.62 
  -4   4  -3    4.64    1.05 
   4  -4   3    5.33    1.16 
   4  -4   4   23.80    2.59 
  -4   4  -4   24.31    2.58 
   4  -4   4   21.60    1.83 
   4  -4   4   26.60    3.55 
   4  -4   5   42.57    3.64 
   4  -4   5   45.78    3.58 
  -4   4  -5   41.50    3.49 
   4  -4   5   35.33    4.17 
   4  -4   5   41.34    2.71 
   4  -4   6    2.34    1.10 
   4  -4   6    0.84    0.52 
   4  -4   6    1.67    0.55 
  -4   4  -6    2.37    0.90 
   4  -4   6    1.70    0.58 
   4  -4   7   -0.04    0.69 
   4  -4   7    1.25    0.68 
   4  -4   7    0.50    0.94 
   4  -4   8    1.34    0.92 
   4  -4   8    0.55    0.47 
   4  -4   8    0.76    1.22 
   4  -4   9   -1.32    0.79 
   4  -4  10    1.08    0.68 
   4  -4  11    0.00    0.59 
   4  -4  12    0.93    0.77 
   4  -4  13    0.59    0.64 
  -4   3  12    1.83    1.06 
  -4   3  11   -0.83    1.13 
  -4   3  10    0.74    0.78 
  -4   3   9    1.31    0.92 
  -4   3   8    1.82    0.98 
   4  -3  -7    0.52    0.71 
  -4   3   7    0.40    0.38 
   4  -3  -6    2.60    1.09 
  -4   3   6    3.03    1.00 
  -4   3   5    2.54    0.89 
   4  -3  -5    2.38    0.87 
  -4   3   5    2.81    0.94 
  -4   3   4   90.65    4.96 
   4  -3  -4   77.57    4.52 
  -4   3   3   21.90    2.21 
   4  -3  -3   23.53    2.18 
  -4   3   2   17.28    2.17 
  -4   3   2   17.01    2.03 
   4  -3  -2   16.49    1.71 
   4  -3  -2   15.27    1.81 
   4  -3  -1    6.26    1.17 
  -4   3   1    5.58    1.17 
  -4   3   1    4.91    0.85 
  -4   3   1    6.26    1.40 
   4  -3   0   61.35    3.72 
  -4   3   0   53.25    3.47 
  -4   3   0   51.41    4.36 
  -4   3   0   53.86    2.75 
  -4   3  -1    1.70    0.53 
  -4   3  -1    0.51    0.44 
  -4   3  -1    1.92    0.61 
  -4   3  -1    1.69    0.50 
  -4   3  -1    1.07    0.34 
   4  -3   1    2.05    0.72 
   4  -3   2   37.88    3.03 
  -4   3  -2   38.96    2.96 
  -4   3  -2   43.47    2.31 
   4  -3   2   35.98    3.92 
  -4   3  -2   50.18    3.28 
   4  -3   3   51.65    3.50 
   4  -3   3   34.30    3.96 
  -4   3  -3   40.30    2.31 
  -4   3  -3   46.82    3.00 
   4  -3   4    9.62    1.51 
  -4   3  -4    9.89    1.51 
   4  -3   4    9.59    2.16 
   4  -3   5    3.78    1.01 
   4  -3   5    4.60    1.03 
  -4   3  -5    2.83    0.86 
   4  -3   5    3.12    1.26 
   4  -3   5    4.61    0.83 
   4  -3   6    0.38    0.38 
   4  -3   6    0.75    0.47 
  -4   3  -6    0.03    0.28 
   4  -3   6   -0.04    0.20 
   4  -3   7    4.87    1.29 
   4  -3   7    4.27    1.14 
  -4   3  -7    5.40    1.27 
   4  -3   8    0.97    0.64 
   4  -3   8    0.98    1.17 
   4  -3   9    2.94    1.11 
   4  -3  10    2.76    1.03 
   4  -3  11    2.54    1.12 
   4  -3  12    3.67    1.42 
   4  -3  13    0.29    0.44 
  -4   2  12   -0.66    0.63 
  -4   2  11    2.85    1.24 
  -4   2  10    0.55    0.60 
  -4   2   9    0.29    0.73 
  -4   2   8    0.57    0.24 
  -4   2   7    1.65    0.81 
  -4   2   6  101.21    5.63 
   4  -2  -6   98.99    5.91 
   4  -2  -6   88.34    5.45 
  -4   2   5   13.98    2.00 
   4  -2  -5   12.41    1.99 
  -4   2   5   12.99    1.94 
  -4   2   4   62.83    4.12 
  -4   2   4   64.11    4.00 
   4  -2  -4   69.93    4.44 
   4  -2  -3    1.31    0.55 
  -4   2   3    0.81    0.44 
  -4   2   3    1.16    0.54 
  -4   2   3    1.72    0.65 
  -4   2   2    9.44    1.43 
  -4   2   2   10.88    1.37 
   4  -2  -2   10.39    1.47 
  -4   2   2    9.24    1.38 
  -4   2   1    7.24    1.25 
  -4   2   1    5.34    1.32 
  -4   2   1    6.40    1.03 
  -4   2   1    5.44    1.02 
   4  -2  -1    5.51    1.01 
   4  -2   0   19.49    1.90 
  -4   2   0   22.83    2.16 
  -4   2   0   17.42    2.59 
  -4   2   0   20.53    1.97 
   4  -2   1  110.94    4.55 
  -4   2  -1  101.48    4.31 
  -4   2  -1   95.13    3.74 
  -4   2  -1  120.60    3.99 
  -4   2  -1  121.32    7.03 
   4  -2   2  483.76   10.20 
  -4   2  -2  442.86    9.28 
  -4   2  -2  477.03    8.68 
  -4   2  -2  403.84   13.44 
  -4   2  -2  411.71    7.77 
   4  -2   3   13.68    1.68 
   4  -2   3    8.78    1.98 
  -4   2  -3   11.14    1.33 
  -4   2  -3   11.33    1.32 
   4  -2   4    2.89    0.75 
   4  -2   4    2.53    1.13 
  -4   2  -4    2.75    0.72 
   4  -2   5    0.61    0.76 
   4  -2   5    0.48    0.32 
   4  -2   5    0.27    0.35 
  -4   2  -5    0.10    0.15 
   4  -2   5    0.65    0.40 
   4  -2   6    5.05    1.73 
   4  -2   6    7.74    1.40 
   4  -2   6    8.89    1.53 
   4  -2   6    8.21    1.37 
  -4   2  -6    5.73    1.14 
   4  -2   7    6.33    1.35 
   4  -2   7    4.26    1.16 
  -4   2  -7    5.90    1.22 
   4  -2   7    5.18    1.86 
   4  -2   8    5.07    1.28 
  -4   2  -8    9.58    1.75 
   4  -2   8    4.46    1.88 
   4  -2   9    1.55    0.74 
   4  -2  10    1.91    0.87 
   4  -2  11    0.84    0.80 
   4  -2  12    1.12    0.82 
   4  -2  13    2.00    1.29 
  -4   1  12    3.58    1.45 
  -4   1  11    2.74    1.28 
  -4   1  10   -0.55    0.51 
  -4   1   9   39.50    4.14 
  -4   1   8    1.90    0.77 
  -4   1   7    8.95    1.77 
  -4   1   6   51.66    3.98 
   4  -1  -6   46.53    4.20 
   4  -1  -5    3.65    1.11 
  -4   1   5    5.03    1.15 
   4  -1  -5    3.64    0.93 
   4  -1  -4   -0.56    0.54 
  -4   1   4    0.22    0.44 
  -4   1   4   -0.04    0.44 
  -4   1   4    0.29    0.41 
   4  -1  -4    0.00    0.46 
  -4   1   3    0.04    0.10 
  -4   1   3    0.49    0.40 
  -4   1   3    0.19    0.10 
   4  -1  -3   -0.25    0.44 
  -4   1   2    5.90    1.09 
   4  -1  -2    6.63    1.25 
  -4   1   2    6.96    1.05 
  -4   1   2    6.37    1.28 
  -4   1   1    9.33    1.29 
  -4   1   1   10.56    1.19 
  -4   1   1    8.35    1.39 
  -4   1   1    8.36    1.73 
  -4   1   0   37.74    2.61 
  -4   1   0   35.83    2.05 
  -4   1   0   32.19    2.77 
  -4   1   0   37.33    3.97 
   4  -1   1  215.99    5.67 
  -4   1  -1  221.12    5.78 
  -4   1  -1  209.91    4.59 
  -4   1  -1  210.32    9.47 
   4  -1   2  144.15    4.80 
  -4   1  -2  124.22    4.39 
  -4   1  -2  129.05    7.58 
  -4   1  -2  139.37    4.79 
  -4   1  -2  140.78    3.75 
   4  -1   3   40.41    2.55 
  -4   1  -3   43.06    2.80 
  -4   1  -3   33.18    2.03 
   4  -1   4   64.12    3.20 
  -4   1  -4   54.48    2.83 
  -4   1  -4   56.60    3.26 
   4  -1   4   61.50    2.93 
   4  -1   5    6.27    1.07 
   4  -1   5    6.87    1.15 
  -4   1  -5    3.68    0.86 
   4  -1   5    4.55    1.57 
   4  -1   6   57.61    3.50 
   4  -1   6   27.93    2.51 
   4  -1   6   47.68    5.30 
  -4   1  -6   38.17    2.84 
   4  -1   7   25.98    2.51 
   4  -1   7   29.02    2.70 
  -4   1  -7   29.26    2.69 
   4  -1   7   22.90    3.91 
   4  -1   8    0.53    0.43 
  -4   1  -8   -0.29    0.47 
   4  -1   8   -1.08    0.98 
   4  -1   9    1.18    0.61 
   4  -1   9    1.22    1.34 
   4  -1  10    0.34    0.23 
   4  -1  10   -1.30    1.48 
   4  -1  11   -0.19    0.17 
   4  -1  12    1.13    0.61 
  -4   0  12    0.69    0.67 
  -4   0  11    8.54    2.23 
  -4   0  10    3.92    1.29 
  -4   0   9    4.69    1.52 
  -4   0   8   13.51    2.28 
  -4   0   7    6.96    1.52 
  -4   0   6   30.67    3.02 
   4   0  -6   21.72    2.51 
   4   0  -6   25.13    3.14 
   4   0  -5    1.38    0.80 
  -4   0   5    2.47    0.99 
  -4   0   5    2.09    0.76 
   4   0  -5    0.86    0.53 
  -4   0   4   32.68    2.66 
   4   0  -4   30.97    2.51 
   4   0  -4   28.11    3.02 
  -4   0   4   31.46    3.46 
  -4   0   3    4.16    0.90 
  -4   0   3    5.52    1.27 
  -4   0   3    4.40    0.86 
   4   0  -3    4.42    0.80 
   4   0  -3    5.52    1.26 
  -4   0   2    3.65    1.03 
  -4   0   2    1.31    0.45 
   4   0  -2    3.92    0.76 
  -4   0   2    3.55    0.69 
   4   0  -2    3.48    0.89 
  -4   0   1   14.58    1.53 
  -4   0   1   12.79    1.15 
  -4   0   1   13.46    1.98 
  -4   0   1   13.11    2.24 
  -4   0   0   31.94    2.98 
  -4   0   0   33.96    2.27 
  -4   0   0   33.09    3.77 
  -4   0   0   28.09    1.41 
   4   0   1    0.87    0.34 
  -4   0  -1    0.96    0.33 
  -4   0  -1    0.83    0.20 
  -4   0  -1    0.79    0.97 
  -4   0  -1    0.88    0.21 
   4   0   2   28.50    1.75 
  -4   0  -2   31.71    1.23 
  -4   0  -2   29.40    3.62 
   4   0   3    9.35    1.08 
  -4   0  -3    9.78    0.81 
  -4   0  -3   10.48    1.42 
  -4   0  -4    0.84    0.43 
   4   0   4    0.60    0.34 
   4   0   4    0.18    0.13 
  -4   0  -4    0.55    0.28 
   4   0   4    0.57    0.75 
   4   0   5    5.46    0.88 
   4   0   5    6.84    1.00 
  -4   0  -5    4.46    0.99 
  -4   0  -5    7.00    0.98 
   4   0   5    3.40    1.41 
   4   0   6   -0.38    0.73 
   4   0   6    1.34    0.47 
   4   0   6    1.75    0.56 
  -4   0  -6    1.80    0.55 
   4   0   7   -0.17    0.68 
   4   0   7    0.31    0.25 
   4   0   7    0.90    0.43 
  -4   0  -7    0.44    0.38 
   4   0   8    2.37    1.49 
   4   0   8    3.35    0.91 
  -4   0  -8    3.60    0.94 
   4   0   9    0.17    0.28 
   4   0   9    0.14    1.04 
   4   0  10    0.22    0.44 
   4   0  10   -0.50    0.65 
   4   0  11    0.34    0.27 
   4   0  11   -0.17    0.67 
   4   0  12    0.36    0.51 
  -4  -1  12    2.70    1.36 
  -4  -1  11    1.06    0.80 
  -4  -1  10    4.18    1.52 
  -4  -1   9   21.50    3.21 
  -4  -1   8    2.71    1.08 
  -4  -1   7   73.26    5.05 
  -4  -1   6    0.31    0.15 
   4   1  -6   -0.17    0.19 
   4   1  -5    0.22    0.27 
  -4  -1   5    0.17    0.21 
  -4  -1   5    0.14    0.30 
   4   1  -5    0.56    0.50 
   4   1  -4   23.77    2.87 
  -4  -1   4   30.58    3.31 
   4   1  -4   26.43    2.33 
  -4  -1   4   27.98    2.42 
  -4  -1   3   20.88    1.87 
   4   1  -3   19.83    1.79 
   4   1  -3   20.49    2.58 
  -4  -1   3   18.67    2.58 
  -4  -1   2  264.55    5.85 
  -4  -1   2  266.53    9.48 
   4   1  -2  259.93    5.71 
  -4  -1   1    0.31    0.35 
  -4  -1   1    0.93    0.36 
  -4  -1   1    0.37    0.16 
  -4  -1   1    0.39    0.46 
  -4  -1   0   82.62    3.08 
  -4  -1   0   84.66    1.94 
  -4  -1   0   87.38    5.39 
  -4  -1   0   94.98    6.74 
  -4  -1  -1   44.86    1.96 
  -4  -1  -1   41.73    4.49 
  -4  -1  -2    5.57    1.49 
   4   1   2    5.61    1.55 
   4   1   3    2.68    1.17 
   4   1   3    1.92    0.32 
  -4  -1  -4    1.09    0.51 
   4   1   4    1.17    0.34 
   4   1   4    1.23    0.27 
  -4  -1  -4    1.26    0.28 
   4   1   4    0.82    0.63 
   4   1   5    1.69    0.38 
  -4  -1  -5    1.77    0.66 
   4   1   5    1.78    0.43 
   4   1   5    1.38    0.92 
  -4  -1  -5    0.93    0.29 
   4   1   6    0.52    0.38 
   4   1   6    0.70    0.29 
   4   1   6    0.35    0.22 
  -4  -1  -6    0.21    0.18 
   4   1   7    1.06    1.03 
   4   1   7    0.36    0.37 
   4   1   7    0.37    0.26 
  -4  -1  -7    0.88    0.41 
   4   1   8    1.63    1.23 
   4   1   8    0.22    0.48 
  -4  -1  -8    1.47    0.58 
   4   1   9    3.25    1.36 
   4   1   9    3.13    0.93 
   4   1  10    1.62    1.18 
   4   1  10    0.29    0.44 
   4   1  11   -0.03    1.42 
   4   1  11    0.71    0.72 
  -4  -2  12    0.16    0.85 
  -4  -2  11    2.22    1.17 
  -4  -2  10    0.61    0.58 
  -4  -2   9    3.26    1.30 
  -4  -2   8    4.78    1.45 
  -4  -2   7   39.61    3.95 
  -4  -2   6    3.36    1.32 
  -4  -2   6    3.71    0.99 
   4   2  -6    4.10    1.08 
  -4  -2   5    9.43    1.67 
  -4  -2   5    7.57    1.88 
   4   2  -5    7.45    1.35 
   4   2  -5   10.85    2.10 
  -4  -2   4  122.44    5.55 
   4   2  -4  137.12    5.36 
   4   2  -4  143.49    7.36 
  -4  -2   4  148.25    7.66 
  -4  -2   3    6.21    1.12 
   4   2  -3    4.62    0.87 
   4   2  -3    4.78    1.27 
  -4  -2   2   59.04    2.91 
   4   2  -2   53.56    2.62 
  -4  -2   1    4.81    1.40 
  -4  -2   1    4.08    0.62 
   4   2  -1    3.72    0.56 
  -4  -2   0   29.27    1.68 
  -4  -2   0   27.34    3.24 
  -4  -2   0   29.30    3.84 
  -4  -2  -1   -0.03    0.05 
  -4  -2  -1   -0.05    0.43 
  -4  -2  -2    0.54    3.53 
   4   2   2    0.60    0.42 
  -4  -2  -3   25.80    2.44 
   4   2   3   21.59    3.42 
  -4  -2  -4    2.34    0.78 
   4   2   4    2.12    1.10 
   4   2   5    7.99    0.83 
  -4  -2  -5    7.05    1.36 
   4   2   5    8.50    2.28 
   4   2   6   11.22    0.85 
   4   2   6   12.55    1.30 
   4   2   6   11.54    2.78 
  -4  -2  -6   13.06    1.93 
   4   2   7    0.73    0.38 
   4   2   7    0.21    0.03 
   4   2   7    0.47    0.29 
   4   2   8    0.94    0.31 
   4   2   8    0.84    0.43 
   4   2   8    1.29    0.42 
   4   2   9    0.65    0.78 
   4   2   9    1.64    0.66 
   4   2  10    2.04    1.57 
   4   2  10    1.27    0.64 
   4   2  11    1.40    1.92 
  -4  -3  12   -0.17    0.67 
  -4  -3  11    1.02    0.80 
  -4  -3  10    1.57    0.94 
  -4  -3   9   10.98    2.46 
  -4  -3   8   13.28    2.50 
  -4  -3   7    1.47    0.84 
  -4  -3   6    2.61    1.19 
  -4  -3   6    2.67    0.97 
   4   3  -6    1.87    0.76 
  -4  -3   5   21.24    2.51 
   4   3  -5   17.30    2.14 
  -4  -3   5   18.32    2.97 
  -4  -3   4    0.61    0.65 
  -4  -3   4   -0.21    0.20 
   4   3  -4    0.28    0.24 
  -4  -3   3    3.32    1.22 
  -4  -3   3    5.75    1.06 
   4   3  -3    4.01    0.80 
   4   3  -2   11.54    1.27 
  -4  -3   2   18.04    2.85 
  -4  -3   2   13.94    1.44 
  -4  -3   1   -0.03    0.35 
  -4  -3   1   -0.19    0.15 
   4   3  -1    0.26    0.13 
  -4  -3   1    0.18    0.45 
   4   3   0   35.42    1.33 
  -4  -3   0   40.21    4.48 
  -4  -3   0   36.26    3.96 
  -4  -3   0   36.57    1.78 
  -4  -3  -1    7.16    1.92 
  -4  -3  -2   28.34    3.91 
  -4  -3  -2   21.43    2.31 
  -4  -3  -3   29.85    2.75 
   4   3   3   28.03    3.82 
  -4  -3  -4    1.51    0.58 
   4   3   4    1.38    0.91 
   4   3   5    0.26    0.66 
  -4  -3  -5    1.27    0.66 
   4   3   5    1.40    0.32 
   4   3   6   13.10    1.30 
  -4  -3  -6    9.28    1.68 
   4   3   6   11.19    2.78 
   4   3   7    0.72    0.82 
   4   3   7    0.88    0.39 
   4   3   8   -0.16    0.69 
   4   3   8    1.63    0.59 
   4   3   9    2.19    1.74 
   4   3   9    5.17    1.15 
   4   3  10    1.57    1.85 
   4   3  11    4.49    2.63 
  -4  -4  12   -0.83    0.88 
  -4  -4  11    1.97    1.11 
  -4  -4  10   -0.74    0.65 
  -4  -4   9   -0.32    0.40 
  -4  -4   8    3.91    1.41 
  -4  -4   7    0.77    0.78 
  -4  -4   7    0.61    0.50 
  -4  -4   6    0.17    0.40 
  -4  -4   6    0.26    0.30 
  -4  -4   5    4.04    1.28 
  -4  -4   5    7.30    1.51 
   4   4  -5    4.88    1.16 
  -4  -4   4    0.31    0.48 
  -4  -4   4    0.20    0.14 
   4   4  -4    0.32    0.30 
  -4  -4   3   -0.34    0.65 
  -4  -4   3   -0.33    0.27 
   4   4  -3    0.07    0.12 
  -4  -4   2   -0.07    0.55 
  -4  -4   2   -0.05    0.11 
  -4  -4   2   -0.44    0.38 
   4   4  -2    0.33    0.16 
   4   4  -1    4.49    0.76 
  -4  -4   1    6.33    1.84 
  -4  -4   1    4.97    1.55 
   4   4   0    0.24    0.18 
  -4  -4   0    1.48    1.22 
  -4  -4   0    0.29    0.55 
  -4  -4  -1    4.81    1.58 
   4   4   1    3.48    0.41 
   4   4   1    4.66    0.45 
  -4  -4  -2    5.44    1.23 
  -4  -4  -3   12.78    1.89 
   4   4   3   11.71    2.40 
  -4  -4  -4    0.30    0.29 
   4   4   4   -0.44    0.52 
   4   4   4    0.98    0.20 
   4   4   4    0.69    0.15 
  -4  -4  -5    7.01    1.49 
   4   4   5    7.13    2.19 
   4   4   5    8.40    0.86 
   4   4   6    7.39    2.29 
  -4  -4  -6    9.91    1.79 
   4   4   6   14.29    1.40 
   4   4   7    3.62    0.82 
   4   4   7    2.74    1.77 
   4   4   8    0.39    1.41 
   4   4   9    1.16    1.06 
   4   4  10    0.59    1.63 
  -4  -5  11    0.75    0.69 
  -4  -5  10   -0.30    0.51 
  -4  -5   9    4.11    1.46 
  -4  -5   8   -0.50    0.78 
  -4  -5   7    1.26    0.92 
  -4  -5   7    0.12    0.23 
  -4  -5   6    5.50    1.95 
  -4  -5   6    4.13    1.22 
  -4  -5   5    5.55    1.35 
  -4  -5   5    4.87    1.64 
   4   5  -5    4.56    1.12 
  -4  -5   4   36.29    3.37 
   4   5  -4   26.81    2.69 
  -4  -5   4   27.00    3.95 
  -4  -5   3    0.57    0.40 
   4   5  -3    0.09    0.18 
  -4  -5   2    0.98    0.88 
  -4  -5   2    0.80    0.43 
   4   5  -2    0.47    0.22 
  -4  -5   2   -0.45    0.59 
  -4  -5   1   12.11    2.62 
   4   5  -1   10.05    1.26 
  -4  -5   1   10.52    2.37 
  -4  -5   0  177.35    4.36 
  -4  -5   0  164.15    9.79 
  -4  -5   0  164.84    9.39 
   4   5   0  159.72    4.50 
  -4  -5  -1   -0.18    0.60 
   4   5   1    1.20    0.32 
  -4  -5  -1    0.43    0.63 
   4   5   2   14.40    1.07 
  -4  -5  -2   10.81    1.80 
   4   5   2    9.55    0.81 
   4   5   3   36.03    1.49 
  -4  -5  -3   35.24    3.28 
   4   5   3   43.56    1.69 
  -4  -5  -4    0.49    0.33 
   4   5   4    0.70    0.63 
   4   5   4    0.79    0.25 
   4   5   4    0.98    0.26 
   4   5   5    1.80    1.21 
  -4  -5  -5    1.93    0.68 
   4   5   5    1.33    0.35 
   4   5   6    6.95    0.95 
   4   5   6    8.40    2.51 
  -4  -5  -6    7.59    1.63 
   4   5   7    2.85    1.94 
   4   5   8    0.83    0.86 
   4   5   9   -0.57    0.61 
   4   5  10    1.28    1.18 
  -4  -6  11   -0.19    0.28 
  -4  -6  10    2.35    1.17 
  -4  -6   9    0.32    0.63 
  -4  -6   8   -0.75    0.94 
  -4  -6   7   -0.10    0.62 
  -4  -6   7    0.48    0.77 
  -4  -6   6    1.16    1.09 
  -4  -6   6    0.20    0.34 
  -4  -6   5   11.40    2.11 
  -4  -6   5   10.03    2.44 
  -4  -6   4    5.01    1.80 
  -4  -6   4    2.92    1.00 
   4   6  -4    5.40    1.21 
  -4  -6   3   20.01    3.48 
  -4  -6   3   17.41    2.25 
   4   6  -3   19.62    2.22 
  -4  -6   2   12.48    2.71 
   4   6  -2   12.83    1.63 
  -4  -6   2   17.59    3.26 
   4   6  -1    2.89    0.75 
  -4  -6   1    1.62    1.05 
  -4  -6   1    1.51    0.85 
  -4  -6   0   55.93    2.61 
   4   6   0   57.44    3.18 
  -4  -6   0   61.55    5.91 
  -4  -6   0   63.49    6.14 
  -4  -6  -1    4.05    1.43 
  -4  -6  -1    5.81    1.99 
   4   6   1    4.15    0.78 
   4   6   2   13.26    1.23 
  -4  -6  -2   15.58    2.25 
   4   6   2   12.91    1.26 
   4   6   3    0.35    0.20 
   4   6   3    0.30    0.15 
  -4  -6  -3    0.83    0.65 
  -4  -6  -4    1.28    0.78 
   4   6   4    0.27    0.17 
   4   6   5    2.27    1.22 
  -4  -6  -5    1.10    0.77 
   4   6   6    1.30    1.13 
  -4  -6  -6    1.04    0.79 
   4   6   7    1.66    1.27 
   4   6   8   -2.19    1.54 
   4   6   9    3.79    2.13 
   4   6  10   -0.12    0.74 
  -4  -7  10   -0.01    1.24 
  -4  -7   9    3.69    1.51 
  -4  -7   8    2.99    1.33 
  -4  -7   7    1.19    1.19 
  -4  -7   7    2.46    0.95 
  -4  -7   6   19.53    3.85 
  -4  -7   6   18.58    3.05 
  -4  -7   5    9.41    1.98 
  -4  -7   5    6.35    2.12 
  -4  -7   4   11.90    2.90 
  -4  -7   4   12.78    2.17 
   4   7  -3   19.94    2.39 
  -4  -7   3   28.90    4.39 
  -4  -7   2   11.48    2.75 
   4   7  -2    9.75    1.59 
  -4  -7   1    1.33    0.56 
   4   7  -1    2.64    0.80 
  -4  -7   1    2.17    1.22 
  -4  -7   0   -0.23    0.29 
   4   7   0    1.40    0.55 
  -4  -7   0   -0.38    0.89 
  -4  -7  -1    0.89    0.65 
  -4  -7  -1    1.72    1.15 
  -4  -7  -2    1.62    1.35 
  -4  -7  -2    2.08    0.83 
   4   7   2    2.17    0.55 
  -4  -7  -3    1.20    0.73 
  -4  -7  -4    6.75    1.65 
  -4  -7  -5    0.43    0.55 
  -4  -7  -6   -0.32    0.37 
   4   7   6    0.49    0.33 
   4   7   7    2.03    1.17 
   4   7   8    1.29    1.48 
  -4  -8   9   16.30    3.54 
  -4  -8   8    0.22    0.54 
  -4  -8   7    5.04    2.63 
  -4  -8   7    3.95    1.51 
  -4  -8   6   16.07    2.81 
  -4  -8   6   10.88    3.06 
  -4  -8   5    0.34    0.86 
  -4  -8   5    0.28    0.39 
  -4  -8   4    4.89    2.03 
  -4  -8   3   -1.45    1.34 
  -4  -8   2    0.77    1.29 
  -4  -8   2   -0.23    0.26 
  -4  -8   1   -0.11    0.73 
  -4  -8   0    1.04    1.07 
  -4  -8  -1    0.40    0.34 
  -4  -8  -1    1.12    0.99 
  -4  -8  -2    0.15    0.35 
  -4  -8  -2   -0.47    0.54 
  -4  -8  -3    0.80    0.56 
  -4  -8  -4   -0.03    0.33 
  -4  -8  -5    0.13    0.52 
  -4  -9   8   -1.69    1.36 
  -4  -9   7    0.16    1.10 
  -4  -9   7   -0.93    0.73 
  -4  -9   6   -0.04    1.15 
  -4  -9   5    0.08    1.11 
  -4  -9   4    3.08    1.97 
  -4  -9   3    1.42    1.19 
  -4  -9   2    3.85    1.65 
  -4  -9   1    0.00    0.67 
  -4  -9   0    0.06    0.57 
  -4  -9   0   -0.01    0.50 
  -4  -9  -1   -0.66    0.65 
  -4  -9  -1    0.38    0.83 
  -4  -9  -2    0.59    0.30 
  -4  -9  -2    1.16    0.76 
  -4  -9  -3    1.44    0.93 
  -4  -9  -3    0.83    0.85 
  -4  -9  -4    0.86    0.87 
  -4  -9  -5    1.45    0.96 
  -4 -10   5    2.21    1.66 
  -4 -10   4    0.98    1.03 
  -4 -10   3   -0.87    1.03 
  -4 -10   2    1.54    1.56 
  -4 -10   1    2.85    1.69 
  -4 -10   0    1.00    1.42 
  -4 -10   0   -0.38    0.60 
  -4 -10  -1    1.85    1.14 
  -4 -10  -1   -0.87    1.26 
  -4 -10  -2   -1.75    1.01 
  -4 -10  -3    0.92    0.93 
  -4 -10  -4    0.35    0.69 
   5 -12  -1   -0.11    0.56 
   5 -12   0    3.65    1.93 
   5 -11  -4    1.12    0.82 
  -5  11   4   -0.38    0.52 
   5 -11  -3    1.38    1.10 
   5 -11  -2    1.03    1.07 
   5 -11  -1    7.21    2.16 
   5 -11   0   -0.82    0.63 
   5 -11   1    4.79    1.78 
   5 -11   2    2.68    1.38 
   5 -11   3   -0.77    0.80 
   5 -11   4    2.71    1.46 
  -5  10   6    0.10    0.39 
  -5  10   5    1.05    1.17 
   5 -10  -4    0.13    0.44 
  -5  10   4    2.57    1.42 
   5 -10  -3    1.29    0.68 
   5 -10  -2   -0.28    0.51 
   5 -10  -1    2.16    1.12 
   5 -10   0    1.55    0.94 
   5 -10   1    6.89    2.02 
   5 -10   2    0.65    0.69 
   5 -10   3    1.77    0.88 
   5 -10   4   -0.32    0.78 
   5 -10   5    5.57    1.84 
   5 -10   6    2.50    0.82 
  -5   9   7    0.41    0.51 
  -5   9   6    0.99    0.68 
  -5   9   5    2.63    1.13 
   5  -9  -4   -0.57    0.77 
  -5   9   4    0.15    0.54 
   5  -9  -3    0.46    0.62 
   5  -9  -2    4.49    1.51 
   5  -9  -1    6.20    1.79 
   5  -9   0   -0.48    0.50 
   5  -9   1    3.92    1.46 
   5  -9   2    0.87    0.87 
   5  -9   3    4.39    1.76 
   5  -9   4    1.75    0.53 
   5  -9   5    3.49    1.28 
   5  -9   5    2.36    1.13 
   5  -9   6    0.64    0.64 
   5  -9   6   -0.49    0.66 
   5  -9   7   -0.69    1.07 
   5  -9   7   -2.91    1.26 
   5  -9   8    0.20    0.95 
   5  -9   8    2.76    1.75 
  -5   8   9   -0.77    1.05 
  -5   8   8    3.38    1.34 
  -5   8   7    0.12    0.13 
  -5   8   6    2.32    1.24 
  -5   8   5   14.93    2.89 
   5  -8  -4    9.46    1.35 
   5  -8  -4    4.45    1.40 
  -5   8   4   10.32    2.35 
   5  -8  -3    0.06    0.50 
  -5   8   3    0.00    0.41 
   5  -8  -3    0.01    0.10 
   5  -8  -2    3.79    1.35 
  -5   8   2    1.67    0.77 
  -5   8   1    0.02    0.39 
   5  -8  -1   -0.83    0.62 
   5  -8   0    1.51    0.84 
   5  -8   1    3.31    1.39 
   5  -8   2    0.22    0.73 
   5  -8   3    3.74    1.54 
   5  -8   4    1.63    1.04 
   5  -8   4    0.53    0.86 
   5  -8   5   -2.08    1.05 
   5  -8   5    0.05    0.45 
   5  -8   6    0.05    0.55 
   5  -8   6    0.19    0.55 
   5  -8   7   -0.90    1.07 
   5  -8   7   -0.94    0.87 
   5  -8   8    0.24    0.99 
   5  -8   8   -0.66    0.95 
   5  -8   9    0.71    0.55 
   5  -8   9   -0.48    0.88 
   5  -8  10   -2.00    1.67 
  -5   7   9    1.10    0.82 
  -5   7   8    1.10    0.79 
  -5   7   7   -0.46    0.75 
   5  -7  -6   19.26    2.58 
  -5   7   6   20.06    3.31 
   5  -7  -5   13.08    1.87 
  -5   7   5    8.03    2.04 
   5  -7  -4    0.42    0.37 
   5  -7  -4    0.01    0.10 
  -5   7   4   -0.60    0.86 
   5  -7  -3   -0.08    0.18 
  -5   7   3    0.14    0.48 
   5  -7  -3    0.18    0.22 
   5  -7  -2    7.97    1.86 
  -5   7   2    9.15    1.86 
   5  -7  -1    2.14    0.96 
  -5   7   1    3.59    1.15 
   5  -7   0   18.99    2.80 
   5  -7   1    4.35    1.48 
   5  -7   2    9.18    2.09 
   5  -7   3   11.23    2.32 
   5  -7   4    0.02    0.28 
   5  -7   4    1.47    0.90 
   5  -7   5    0.61    0.27 
   5  -7   5    1.69    1.00 
   5  -7   6   -1.60    0.88 
   5  -7   6   -1.25    1.12 
   5  -7   7    2.25    1.03 
   5  -7   7    1.40    1.49 
   5  -7   8    1.08    0.91 
   5  -7   8    1.25    0.93 
   5  -7   9    0.05    0.18 
   5  -7   9   -0.24    0.95 
   5  -7  10    0.72    1.25 
   5  -7  10    1.40    0.93 
   5  -7  11    2.32    2.14 
  -5   6  10    1.80    1.05 
  -5   6   9    3.90    1.50 
  -5   6   8    4.94    1.65 
  -5   6   7    0.41    0.51 
   5  -6  -6    5.20    1.40 
  -5   6   6    4.49    1.37 
   5  -6  -5    1.10    0.66 
  -5   6   5    0.01    0.37 
   5  -6  -4    0.07    0.33 
  -5   6   4    0.31    0.39 
   5  -6  -3    2.97    1.26 
   5  -6  -3   15.43    1.64 
  -5   6   2    0.72    0.78 
   5  -6  -2   -0.81    0.54 
   5  -6  -1   11.07    2.09 
  -5   6   1   10.00    0.73 
  -5   6   1   13.30    2.29 
  -5   6   0    9.64    1.90 
   5  -6   0    5.43    1.41 
   5  -6   1    2.53    0.98 
  -5   6  -1    3.53    1.09 
   5  -6   2   19.01    2.87 
  -5   6  -2   19.14    2.72 
   5  -6   3    9.89    2.08 
  -5   6  -3    6.52    0.66 
   5  -6   3    8.24    1.89 
   5  -6   4    5.90    1.63 
   5  -6   4    5.35    1.73 
   5  -6   5    7.92    2.19 
   5  -6   5    6.49    1.61 
   5  -6   6   -0.31    0.50 
   5  -6   6    0.06    0.34 
   5  -6   7    6.58    2.24 
   5  -6   7    6.80    1.84 
   5  -6   8    1.82    1.05 
   5  -6   8    1.83    1.07 
   5  -6   9    3.80    1.95 
   5  -6   9    1.31    1.03 
   5  -6   9    0.90    0.69 
   5  -6  10    2.55    1.59 
   5  -6  10    1.65    0.96 
   5  -6  10    3.35    1.39 
   5  -6  11    1.98    2.24 
   5  -6  11    2.73    1.28 
   5  -6  11    1.73    1.04 
  -5   5  11   -0.60    0.67 
  -5   5  10    1.25    0.61 
  -5   5   9   -1.44    0.88 
  -5   5   8    7.99    1.98 
  -5   5   7   -0.01    0.50 
   5  -5  -6    1.33    0.71 
  -5   5   6    1.17    0.91 
   5  -5  -5    0.05    0.54 
  -5   5   5    0.76    0.69 
   5  -5  -4   12.19    1.75 
  -5   5   4    9.01    1.76 
   5  -5  -3    8.81    1.36 
  -5   5   3   10.21    1.87 
   5  -5  -3    7.93    1.63 
   5  -5  -2    3.05    0.98 
  -5   5   2    1.82    0.83 
   5  -5  -1   21.95    2.72 
  -5   5   1   27.08    3.02 
  -5   5   1   28.09    3.49 
   5  -5   0    3.84    1.03 
  -5   5   0    3.29    0.89 
  -5   5   0    2.98    1.14 
  -5   5   0    2.75    0.50 
   5  -5   1   66.25    4.82 
  -5   5  -1   62.70    4.62 
  -5   5  -1   59.09    4.17 
  -5   5  -1   47.63    4.48 
  -5   5  -1   55.25    2.32 
  -5   5  -1   48.73    1.96 
   5  -5   2    0.36    0.39 
  -5   5  -2    2.81    0.97 
  -5   5  -2    3.82    0.66 
   5  -5   3    0.46    0.55 
  -5   5  -3    0.60    0.44 
   5  -5   3    0.68    0.55 
   5  -5   4    3.76    1.23 
   5  -5   4    4.89    1.68 
  -5   5  -4    3.37    1.04 
   5  -5   5    1.06    0.70 
  -5   5  -5    2.28    0.89 
   5  -5   5    0.50    0.47 
   5  -5   6   21.18    2.94 
   5  -5   6   19.06    3.61 
   5  -5   7    5.40    2.04 
   5  -5   7    6.41    1.57 
   5  -5   8    5.65    1.95 
   5  -5   8    4.48    1.34 
   5  -5   8    6.09    1.68 
   5  -5   9    0.83    1.03 
   5  -5   9    2.15    0.99 
   5  -5   9    1.21    0.60 
   5  -5  10    1.20    0.89 
   5  -5  10    2.96    1.24 
   5  -5  11    5.65    3.03 
   5  -5  11    7.66    2.09 
   5  -5  11    7.99    2.20 
   5  -5  12   -1.20    1.08 
   5  -5  12    3.20    1.40 
  -5   4  11   -0.27    0.68 
  -5   4  10    0.50    0.40 
  -5   4   9    5.21    1.76 
  -5   4   8    7.09    1.80 
  -5   4   7    1.15    0.69 
   5  -4  -6    1.33    0.96 
  -5   4   6    0.18    0.42 
   5  -4  -5   -0.06    0.41 
  -5   4   5    0.51    0.57 
   5  -4  -4    1.04    0.56 
  -5   4   4    2.34    0.91 
  -5   4   3   40.02    3.53 
   5  -4  -3   46.84    3.35 
  -5   4   2    9.55    2.02 
  -5   4   2   14.09    2.07 
   5  -4  -2   12.76    1.62 
  -5   4   2   11.35    2.14 
   5  -4  -1    3.89    1.07 
  -5   4   1    3.59    1.03 
  -5   4   1    2.88    0.72 
  -5   4   1    4.57    1.44 
   5  -4   0   27.27    2.84 
  -5   4   0   27.82    2.82 
  -5   4   0   30.38    3.68 
  -5   4   0   33.70    2.29 
  -5   4  -1    1.53    0.57 
  -5   4  -1    0.90    0.63 
   5  -4   1    1.62    0.74 
  -5   4  -1    1.46    0.60 
  -5   4  -1    1.69    0.71 
  -5   4  -1    2.07    0.51 
   5  -4   2   20.30    2.61 
  -5   4  -2   22.15    2.58 
  -5   4  -2   10.98    1.74 
  -5   4  -2   15.76    1.75 
  -5   4  -2   16.23    1.49 
   5  -4   3    0.47    0.50 
   5  -4   3    1.47    0.48 
   5  -4   4    0.92    0.61 
  -5   4  -4    0.61    0.42 
   5  -4   5   21.12    2.60 
  -5   4  -5   22.49    2.65 
   5  -4   5   28.95    4.30 
   5  -4   6   24.99    2.97 
  -5   4  -6   25.94    2.99 
   5  -4   6   21.52    3.87 
   5  -4   7    0.35    1.09 
   5  -4   7    0.76    0.60 
   5  -4   7    0.88    0.71 
   5  -4   8   13.73    2.36 
   5  -4   8   12.25    3.10 
   5  -4   8   13.88    2.29 
   5  -4   9   -0.20    0.64 
   5  -4   9    0.78    0.58 
   5  -4   9   -0.27    0.30 
   5  -4  10    1.33    1.10 
   5  -4  10    0.17    0.67 
   5  -4  10   -0.09    0.21 
   5  -4  11    7.94    2.97 
   5  -4  11   12.51    2.61 
   5  -4  11    8.18    2.14 
   5  -4  12    3.82    1.59 
   5  -4  12    2.03    1.07 
  -5   3  11    0.79    0.62 
  -5   3  10   -0.62    0.67 
  -5   3   9    0.17    0.64 
  -5   3   8    0.93    0.63 
  -5   3   7    1.90    0.77 
  -5   3   6   21.41    2.79 
   5  -3  -6   24.04    3.05 
   5  -3  -5    0.11    0.32 
  -5   3   5    0.47    0.29 
  -5   3   4   89.78    5.16 
   5  -3  -4   82.76    4.98 
  -5   3   3   23.43    2.68 
  -5   3   3   31.22    2.83 
   5  -3  -3   22.76    2.49 
  -5   3   2   96.80    5.55 
  -5   3   2   83.71    4.59 
   5  -3  -2   90.63    4.68 
  -5   3   2   85.02    4.66 
  -5   3   1   15.61    2.11 
  -5   3   1   14.51    1.77 
  -5   3   1   11.90    2.37 
   5  -3  -1   16.25    1.96 
   5  -3   0   27.73    2.64 
  -5   3   0   25.38    2.58 
  -5   3   0   20.94    3.14 
  -5   3   0   25.08    2.28 
   5  -3   1    7.43    1.36 
  -5   3  -1    7.57    1.39 
  -5   3  -1    7.62    1.24 
  -5   3  -1    5.22    1.59 
  -5   3  -1    9.94    1.21 
  -5   3  -1    7.96    1.30 
   5  -3   2    4.78    1.16 
  -5   3  -2    4.89    1.14 
  -5   3  -2    4.18    0.91 
  -5   3  -2    4.99    0.89 
   5  -3   2    5.36    1.57 
  -5   3  -2    2.97    1.26 
   5  -3   3    0.71    0.62 
  -5   3  -3    0.91    0.39 
   5  -3   3    0.33    0.42 
  -5   3  -3    0.90    0.43 
   5  -3   4   48.25    3.71 
  -5   3  -4   46.42    3.32 
   5  -3   4   42.90    5.18 
   5  -3   5   42.23    3.47 
  -5   3  -5   41.81    3.42 
   5  -3   5   39.43    5.10 
   5  -3   6    3.87    1.09 
   5  -3   6    3.06    1.48 
  -5   3  -6    5.42    1.25 
   5  -3   7    1.14    1.17 
   5  -3   7    1.06    0.56 
   5  -3   7    1.38    0.70 
  -5   3  -7    2.05    0.78 
   5  -3   8    4.50    1.90 
   5  -3   8    7.88    1.66 
   5  -3   8    3.60    1.03 
   5  -3   9    0.29    0.46 
   5  -3   9    0.80    0.84 
   5  -3   9    0.63    0.50 
   5  -3  10   -0.56    0.97 
   5  -3  10   -0.59    0.63 
   5  -3  10   -0.52    0.39 
   5  -3  11    1.55    1.67 
   5  -3  11    3.39    1.49 
   5  -3  11    0.31    0.33 
  -5   2  12    1.82    1.07 
  -5   2  11    3.27    1.37 
  -5   2  10    1.55    0.92 
  -5   2   9    3.29    1.25 
  -5   2   8    2.91    1.09 
  -5   2   7   17.40    2.57 
   5  -2  -6    1.62    0.87 
  -5   2   6    1.64    0.77 
   5  -2  -5    1.10    0.82 
  -5   2   5    0.68    0.45 
  -5   2   4   32.74    3.16 
  -5   2   4   37.36    3.16 
   5  -2  -4   34.88    3.43 
  -5   2   3   58.19    4.22 
  -5   2   3   71.98    4.16 
   5  -2  -3   64.26    4.29 
  -5   2   3   66.84    4.72 
  -5   2   2   16.39    2.12 
  -5   2   2   15.52    1.79 
  -5   2   2   13.24    1.87 
  -5   2   1    0.02    0.21 
   5  -2  -1    0.18    0.21 
  -5   2   1    0.14    0.15 
  -5   2   1   -0.03    0.47 
  -5   2   1    0.14    0.22 
  -5   2   0   85.67    4.66 
  -5   2   0   83.17    6.61 
  -5   2   0   96.60    5.19 
   5  -2   0   86.93    4.28 
   5  -2   1  140.07    5.55 
  -5   2  -1  150.48    5.71 
  -5   2  -1  142.28    4.73 
  -5   2  -1  119.96    4.67 
  -5   2  -1  136.69    8.50 
  -5   2  -1  135.38    6.10 
   5  -2   2   31.88    2.62 
  -5   2  -2   29.28    2.58 
  -5   2  -2   19.25    1.76 
  -5   2  -2   21.86    3.44 
  -5   2  -2   28.73    2.31 
   5  -2   2   20.22    3.09 
   5  -2   3   38.81    3.14 
  -5   2  -3   26.96    2.12 
  -5   2  -3   34.79    2.67 
   5  -2   3   34.63    4.46 
  -5   2  -4    1.42    0.54 
   5  -2   4    0.16    0.33 
   5  -2   4    0.49    0.34 
  -5   2  -4    1.50    0.54 
   5  -2   5   -0.21    0.38 
  -5   2  -5    0.53    0.34 
   5  -2   5   -0.42    0.82 
   5  -2   6   -0.44    0.50 
   5  -2   6   -0.01    0.22 
   5  -2   6   -0.15    0.43 
  -5   2  -6    0.13    0.17 
   5  -2   7    8.90    1.54 
   5  -2   7    8.19    2.54 
   5  -2   7    7.24    1.38 
  -5   2  -7    6.47    1.28 
   5  -2   8   10.01    1.79 
   5  -2   8   10.52    1.83 
   5  -2   8    5.90    2.22 
   5  -2   9   -0.17    0.57 
   5  -2   9    1.02    0.63 
   5  -2   9    0.55    0.43 
   5  -2  10    1.40    0.78 
   5  -2  10    0.34    0.19 
   5  -2  11   -0.43    0.94 
   5  -2  11   -1.83    0.93 
   5  -2  11    0.89    0.78 
  -5   1  12    2.83    1.33 
  -5   1  11    0.43    0.49 
  -5   1  10    1.24    0.79 
  -5   1   9    1.29    0.78 
  -5   1   8   15.21    2.59 
  -5   1   7   14.44    2.29 
  -5   1   6   43.59    3.77 
   5  -1  -6   33.05    3.46 
   5  -1  -5    2.16    0.97 
  -5   1   5    2.54    0.86 
  -5   1   5    1.54    0.48 
   5  -1  -5    2.01    0.77 
  -5   1   4   24.41    2.46 
   5  -1  -4   18.21    2.57 
  -5   1   4   19.54    2.77 
  -5   1   4   21.22    2.43 
  -5   1   3   16.39    2.13 
  -5   1   3   16.97    1.89 
   5  -1  -3   15.29    2.17 
  -5   1   3   13.53    2.09 
  -5   1   2    0.19    0.44 
  -5   1   2    0.01    0.13 
  -5   1   2   -0.19    0.37 
  -5   1   1   17.05    1.99 
  -5   1   1   16.47    1.55 
  -5   1   1   15.79    2.21 
  -5   1   1   15.95    2.65 
  -5   1   0   39.62    2.88 
  -5   1   0   35.46    2.13 
  -5   1   0   31.96    4.08 
  -5   1   0   32.73    3.24 
  -5   1  -1    6.47    1.08 
  -5   1  -1    7.25    0.92 
  -5   1  -1    7.17    0.93 
  -5   1  -1   11.08    2.44 
  -5   1  -1    6.67    1.48 
   5  -1   1    6.33    1.01 
   5  -1   2   24.75    2.09 
  -5   1  -2   23.02    2.03 
  -5   1  -2   19.01    1.42 
  -5   1  -2   21.75    3.43 
  -5   1  -2   22.26    2.16 
   5  -1   2   17.88    2.94 
   5  -1   3   34.65    2.47 
  -5   1  -3   35.38    2.07 
  -5   1  -3   35.13    2.80 
   5  -1   3   28.15    4.04 
  -5   1  -4    1.70    0.63 
   5  -1   4    1.43    0.67 
   5  -1   4    1.70    1.05 
  -5   1  -4    1.73    0.46 
  -5   1  -5    0.97    0.48 
   5  -1   5    1.37    0.54 
  -5   1  -5    1.01    0.39 
   5  -1   5   -0.09    0.79 
   5  -1   6    5.36    0.99 
   5  -1   6    4.37    0.90 
   5  -1   6    5.12    1.94 
  -5   1  -6    4.64    0.96 
   5  -1   7    0.49    0.40 
   5  -1   7    1.19    1.26 
   5  -1   7    0.48    0.31 
  -5   1  -7    0.38    0.42 
   5  -1   8    4.15    1.91 
   5  -1   8    4.92    1.21 
   5  -1   8    4.38    1.03 
   5  -1   9    0.05    0.14 
   5  -1   9    0.22    0.48 
   5  -1  10    2.43    0.96 
   5  -1  10    1.33    0.66 
   5  -1  11   -0.72    1.61 
  -5   0  12    0.18    0.81 
  -5   0  11    4.85    1.69 
  -5   0  10    1.68    0.92 
  -5   0   9    7.64    1.75 
  -5   0   8   17.77    2.69 
  -5   0   7   37.08    3.64 
  -5   0   6   11.44    1.94 
   5   0  -6    9.33    1.65 
   5   0  -5    7.79    1.41 
  -5   0   5    7.74    1.92 
   5   0  -5    8.91    1.97 
  -5   0   5    8.06    1.48 
  -5   0   4    0.15    0.21 
  -5   0   4   -0.27    0.45 
  -5   0   4    0.05    0.29 
   5   0  -4   -0.19    0.10 
   5   0  -4   -0.24    0.51 
  -5   0   3    0.13    0.10 
  -5   0   3    0.02    0.35 
  -5   0   3    0.04    0.19 
   5   0  -3    0.04    0.21 
  -5   0   2    2.45    0.96 
  -5   0   2    3.14    0.83 
  -5   0   2    3.71    0.79 
  -5   0   1    3.10    1.03 
  -5   0   1    2.96    0.75 
  -5   0   1    3.17    1.27 
  -5   0   1    3.20    0.61 
  -5   0   0   12.03    2.57 
  -5   0   0    9.92    0.90 
  -5   0   0   11.57    2.07 
  -5   0  -1    1.68    0.28 
  -5   0  -1    2.13    0.30 
  -5   0  -1    2.22    0.57 
  -5   0  -1    0.45    0.41 
  -5   0  -1    1.95    0.74 
  -5   0  -2    1.48    0.75 
   5   0   2    1.17    0.34 
  -5   0  -2    1.65    0.62 
   5   0   2    1.38    0.86 
   5   0   3    0.08    0.10 
   5   0   3   -0.30    0.45 
  -5   0  -3    0.14    0.28 
  -5   0  -4    0.78    0.38 
   5   0   4    1.78    0.48 
   5   0   4    0.09    0.46 
  -5   0  -4    0.78    0.23 
   5   0   5   -1.01    1.11 
  -5   0  -5    0.43    0.39 
   5   0   5   -0.03    0.58 
  -5   0  -5    0.26    0.16 
   5   0   6    7.91    1.18 
   5   0   6    7.65    1.04 
  -5   0  -6    6.20    0.95 
   5   0   6    4.07    1.75 
   5   0   7   11.20    1.50 
   5   0   7   10.75    1.40 
   5   0   7   11.83    3.10 
   5   0   8    0.34    1.37 
   5   0   8    0.14    0.19 
   5   0   8    0.50    0.39 
   5   0   9    1.99    1.82 
   5   0   9    0.38    0.33 
   5   0   9    1.50    0.60 
   5   0  10   -0.13    1.18 
  -5  -1  12    0.40    0.49 
  -5  -1  11    0.30    0.44 
  -5  -1  10    0.96    0.74 
  -5  -1   9    2.77    1.16 
  -5  -1   8   10.37    2.09 
  -5  -1   7    3.19    1.15 
  -5  -1   6    6.31    1.47 
   5   1  -6    6.18    1.41 
  -5  -1   6    7.15    1.99 
  -5  -1   5    6.81    1.35 
  -5  -1   5    7.93    2.01 
   5   1  -5    6.98    1.47 
  -5  -1   4    0.01    0.52 
  -5  -1   4    0.32    0.29 
   5   1  -4    0.12    0.11 
  -5  -1   3   33.65    2.47 
   5   1  -3   28.04    2.20 
  -5  -1   3   31.60    3.69 
  -5  -1   3   33.15    2.80 
  -5  -1   2   75.46    3.35 
  -5  -1   2   78.38    5.64 
  -5  -1   2   72.85    3.89 
  -5  -1   1    0.99    0.42 
  -5  -1   1    0.43    0.42 
  -5  -1   1    1.15    0.39 
  -5  -1   1    1.05    0.62 
  -5  -1   0   -0.48    0.81 
  -5  -1   0    0.13    0.19 
  -5  -1   0    0.16    0.08 
  -5  -1   0   -0.44    0.23 
  -5  -1  -1    9.16    1.03 
  -5  -1  -1    8.66    2.37 
  -5  -1  -1    6.77    1.76 
  -5  -1  -2    0.41    0.38 
   5   1   3    4.79    1.59 
  -5  -1  -3    4.68    1.10 
  -5  -1  -4   19.91    2.37 
   5   1   4   17.48    3.39 
   5   1   5    1.16    0.29 
  -5  -1  -5    2.06    0.78 
   5   1   5    1.00    1.38 
   5   1   6    0.77    0.28 
  -5  -1  -6    0.88    0.43 
   5   1   6    0.50    0.22 
  -5  -1  -6    1.62    0.46 
   5   1   6    0.17    0.99 
   5   1   7    0.32    0.23 
   5   1   7    1.11    0.43 
   5   1   7    0.79    1.33 
   5   1   8    6.07    1.13 
   5   1   8    4.43    1.78 
   5   1   9    1.93    1.37 
   5   1  10    0.15    0.97 
  -5  -2  12    3.64    1.64 
  -5  -2  11   -0.42    0.69 
  -5  -2  10   -1.19    0.83 
  -5  -2   9    1.25    0.81 
  -5  -2   8   -0.93    0.66 
  -5  -2   7    3.03    1.18 
  -5  -2   6   -0.14    0.34 
  -5  -2   6   -0.71    0.50 
   5   2  -6    0.00    0.48 
  -5  -2   5    0.19    0.38 
  -5  -2   5   -0.39    0.35 
   5   2  -5   -0.07    0.52 
  -5  -2   4   -0.20    0.46 
  -5  -2   4    0.60    0.44 
   5   2  -4   -0.08    0.18 
  -5  -2   3    9.67    2.16 
  -5  -2   3    7.97    1.31 
   5   2  -3    5.83    1.02 
  -5  -2   2    1.23    0.66 
  -5  -2   2    1.42    0.49 
  -5  -2   2    1.24    0.82 
  -5  -2   2    1.27    0.40 
   5   2  -2    0.68    0.20 
  -5  -2   1    5.86    0.96 
  -5  -2   1    6.75    0.76 
  -5  -2   1    6.09    1.68 
  -5  -2   1    7.58    2.13 
  -5  -2   0    0.58    0.75 
  -5  -2   0    1.82    0.48 
  -5  -2   0    1.78    0.92 
  -5  -2  -1    2.72    0.43 
  -5  -2  -1    3.87    1.36 
  -5  -2  -2    0.82    0.45 
  -5  -2  -3    6.96    1.40 
   5   2   3    4.53    1.59 
  -5  -2  -4    5.44    1.29 
   5   2   4    2.64    1.32 
  -5  -2  -5    7.91    1.58 
   5   2   5    6.26    2.15 
   5   2   6   13.46    3.25 
  -5  -2  -6   15.25    2.23 
   5   2   7    0.38    0.22 
   5   2   7    0.09    0.46 
   5   2   8    1.98    1.59 
   5   2   9    5.14    3.01 
   5   2  10   -1.85    1.76 
  -5  -3  11    4.99    1.78 
  -5  -3  10   -0.13    0.28 
  -5  -3   9   -1.38    1.02 
  -5  -3   8    4.64    1.47 
  -5  -3   7    0.43    0.48 
  -5  -3   7    1.32    0.73 
  -5  -3   6    0.83    0.84 
  -5  -3   6    0.01    0.48 
   5   3  -6   -0.21    0.26 
  -5  -3   5   -0.62    0.43 
   5   3  -5   -0.33    0.29 
  -5  -3   4    1.72    0.94 
  -5  -3   4    1.17    0.54 
   5   3  -4    1.40    0.61 
  -5  -3   3    1.65    0.96 
  -5  -3   3    4.00    0.88 
   5   3  -3    2.30    0.61 
  -5  -3   2   11.37    2.42 
  -5  -3   2    9.24    1.17 
   5   3  -2    7.94    1.05 
  -5  -3   1   -0.01    0.05 
  -5  -3   1    0.66    0.18 
   5   3  -1    0.32    0.16 
  -5  -3   1    0.63    0.76 
  -5  -3   0   17.69    1.35 
  -5  -3   0   15.24    2.78 
  -5  -3  -1    1.13    0.77 
  -5  -3  -2   -0.17    0.30 
  -5  -3  -3    0.37    0.39 
  -5  -3  -4   11.61    1.96 
   5   3   4   10.78    2.54 
  -5  -3  -5    0.24    0.23 
   5   3   5    0.07    0.64 
  -5  -3  -6    2.44    1.00 
   5   3   6    4.41    1.92 
   5   3   7    2.97    1.96 
   5   3   8    0.07    0.45 
   5   3   9   10.05    3.21 
   5   3  10    2.45    2.71 
  -5  -4  11    3.47    1.51 
  -5  -4  10    2.67    1.26 
  -5  -4   9    0.48    0.51 
  -5  -4   8    0.19    0.37 
  -5  -4   7    2.34    1.20 
  -5  -4   7    4.27    1.33 
  -5  -4   6   10.35    1.95 
  -5  -4   6   14.22    3.15 
  -5  -4   5    0.50    0.52 
  -5  -4   5    0.73    0.48 
   5   4  -5   -0.37    0.32 
  -5  -4   4   -0.53    0.78 
  -5  -4   4   -0.79    0.44 
   5   4  -4   -0.09    0.33 
  -5  -4   3    4.49    1.64 
  -5  -4   3    2.76    0.79 
   5   4  -3    2.60    0.70 
  -5  -4   2   14.21    2.85 
  -5  -4   2   17.60    1.80 
   5   4  -2   16.28    1.55 
   5   4  -1    0.16    0.17 
  -5  -4   1    0.31    0.31 
  -5  -4   0    6.40    0.74 
  -5  -4   0    6.80    1.98 
  -5  -4  -1    1.33    0.60 
  -5  -4  -2    2.33    0.89 
  -5  -4  -3    1.54    0.79 
  -5  -4  -4    7.63    1.66 
   5   4   4    6.85    2.09 
  -5  -4  -5    1.97    0.99 
   5   4   5    1.38    0.96 
  -5  -4  -6    0.31    0.50 
   5   4   6   -1.33    1.39 
   5   4   7    1.58    1.30 
   5   4   8    0.09    0.63 
   5   4   9    2.06    1.63 
  -5  -5  11    0.53    0.93 
  -5  -5  10    1.05    1.07 
  -5  -5   9    0.12    0.46 
  -5  -5   8    2.05    1.00 
  -5  -5   7    1.06    0.88 
  -5  -5   7    1.43    0.77 
  -5  -5   6    0.75    1.40 
  -5  -5   6    2.10    0.86 
  -5  -5   5    1.35    1.06 
  -5  -5   5   -0.73    0.49 
   5   5  -5    0.75    0.85 
  -5  -5   4    8.07    2.34 
   5   5  -4    8.61    1.52 
  -5  -5   3   -0.16    0.21 
   5   5  -3    0.23    0.09 
   5   5  -2   19.30    1.82 
  -5  -5   2   29.37    4.30 
   5   5  -1   18.49    1.56 
  -5  -5   1   21.98    3.91 
  -5  -5   0    0.21    0.17 
  -5  -5   0    0.12    0.15 
   5   5   0    0.38    0.15 
  -5  -5   0    0.69    0.80 
  -5  -5  -1    0.22    0.65 
  -5  -5  -2    2.35    0.88 
  -5  -5  -3   -0.04    0.25 
  -5  -5  -4   -0.44    0.58 
  -5  -5  -5   -0.31    0.40 
   5   5   5    0.01    0.51 
  -5  -5  -6    0.90    0.81 
   5   5   6   -0.44    0.64 
   5   5   7    1.19    1.40 
   5   5   8    3.65    2.29 
   5   5   9   -0.03    0.73 
  -5  -6  10    0.52    0.75 
  -5  -6   9    0.87    0.62 
  -5  -6   8    0.68    0.99 
  -5  -6   8    0.65    0.91 
  -5  -6   7    1.16    1.73 
  -5  -6   7   -0.12    0.25 
  -5  -6   6    0.20    0.94 
  -5  -6   6    0.93    0.75 
  -5  -6   5    5.77    1.93 
  -5  -6   5    7.55    1.79 
  -5  -6   4    1.18    1.19 
  -5  -6   4    0.54    0.77 
  -5  -6   3    1.31    1.03 
  -5  -6   2   33.88    4.85 
  -5  -6   1   -0.05    0.74 
  -5  -6   0   12.58    2.96 
  -5  -6  -1    3.11    1.32 
  -5  -6  -1    1.98    1.21 
  -5  -6  -2    2.31    1.42 
  -5  -6  -2    0.78    0.69 
  -5  -6  -3    0.31    0.56 
  -5  -6  -4    0.53    0.66 
  -5  -6  -5   -0.10    0.39 
  -5  -6  -6    3.47    1.33 
   5   6   6    1.79    1.20 
   5   6   7    0.47    0.78 
   5   6   8    0.51    0.70 
  -5  -7   9    5.74    1.91 
  -5  -7   8    1.49    1.21 
  -5  -7   8   -0.29    0.43 
  -5  -7   7    3.94    2.35 
  -5  -7   7    3.64    1.41 
  -5  -7   6    0.86    1.31 
  -5  -7   6   -0.36    0.80 
  -5  -7   5    3.65    1.57 
  -5  -7   5    5.25    1.46 
  -5  -7   4    4.46    2.16 
  -5  -7   3    1.10    1.28 
  -5  -7   2    1.39    1.23 
  -5  -7   1    0.49    0.89 
  -5  -7   0    0.01    0.64 
  -5  -7  -1    0.09    0.48 
  -5  -7  -1    0.11    0.90 
  -5  -7  -2    1.50    1.25 
  -5  -7  -2   -0.18    0.39 
  -5  -7  -3   -0.07    0.34 
  -5  -7  -3   -2.89    1.57 
  -5  -7  -4    0.85    0.75 
  -5  -7  -5    0.19    0.45 
  -5  -7  -6    1.38    1.21 
  -5  -8   8    1.44    0.88 
  -5  -8   7    1.09    0.77 
  -5  -8   6    2.32    1.55 
  -5  -8   5   -2.30    1.53 
  -5  -8   4    1.47    1.19 
  -5  -8   3    2.01    2.03 
  -5  -8   2    0.28    0.59 
  -5  -8   1   -1.56    1.60 
  -5  -8   0    3.78    1.96 
  -5  -8  -1    1.03    1.00 
  -5  -8  -1   -0.86    0.62 
  -5  -8  -2    0.35    1.18 
  -5  -8  -2    0.28    0.34 
  -5  -8  -3    0.64    0.47 
  -5  -8  -3    0.41    1.13 
  -5  -8  -4    0.55    0.66 
  -5  -9   3    1.50    0.86 
  -5  -9   2   -2.29    1.76 
  -5  -9   1    1.11    1.78 
  -5  -9   0    1.31    0.90 
  -5  -9   0    2.52    1.82 
  -5  -9  -1    0.69    0.89 
  -5  -9  -2    1.09    0.84 
   6 -11  -3   -1.69    1.47 
   6 -11  -2    1.01    0.93 
   6 -11  -1   -0.62    0.69 
   6 -11   0   -1.09    0.79 
   6 -11   1   -1.63    1.15 
   6 -11   2   -0.39    0.45 
  -6  10   5    0.22    0.41 
   6 -10  -4   -0.05    0.18 
  -6  10   4   -0.50    0.94 
   6 -10  -3    2.89    1.30 
   6 -10  -2    1.05    0.80 
   6 -10  -1   -0.10    0.84 
   6 -10   0    0.49    1.07 
   6 -10   1    0.30    0.89 
   6 -10   2    3.00    1.40 
   6 -10   3    2.84    1.43 
   6 -10   4    6.08    2.25 
   6 -10   5   14.69    3.24 
  -6   9   7    0.12    0.92 
  -6   9   6    1.27    1.01 
  -6   9   5    1.19    1.12 
   6  -9  -4    1.36    0.86 
  -6   9   4    3.13    1.62 
   6  -9  -3    4.16    2.39 
   6  -9  -2    3.77    1.44 
   6  -9  -1   -1.24    1.13 
   6  -9   0    0.32    0.51 
   6  -9   1    0.23    0.34 
   6  -9   2    0.54    0.57 
   6  -9   3    2.32    1.42 
   6  -9   4    1.30    0.79 
   6  -9   5    5.71    1.96 
   6  -9   6    6.81    2.07 
   6  -9   6    3.86    1.45 
   6  -9   7   -0.16    0.89 
   6  -9   7   -1.04    0.92 
  -6   8   8    0.91    0.74 
  -6   8   7    1.03    0.81 
  -6   8   6    0.79    0.27 
  -6   8   5    0.43    0.66 
   6  -8  -4    5.92    1.72 
  -6   8   4    7.36    2.21 
   6  -8  -3    7.50    1.96 
   6  -8  -2    2.27    1.06 
   6  -8  -1    4.74    1.53 
   6  -8   0    6.34    1.80 
   6  -8   1    0.39    0.42 
   6  -8   2   -0.08    0.25 
   6  -8   3    5.84    1.87 
   6  -8   4    0.02    0.65 
   6  -8   5    5.98    1.87 
   6  -8   5    3.88    1.53 
   6  -8   6    1.55    1.36 
   6  -8   6    1.82    1.05 
   6  -8   7    0.48    0.68 
   6  -8   7    2.24    1.67 
   6  -8   8    2.47    1.88 
   6  -8   8    0.40    0.50 
   6  -8   9   -0.57    1.49 
  -6   7   9    0.38    0.60 
  -6   7   8   -0.55    0.16 
  -6   7   7   -1.47    0.92 
  -6   7   6    5.29    1.75 
  -6   7   5    0.00    0.51 
   6  -7  -4   10.08    1.47 
  -6   7   4   11.52    2.38 
  -6   7   3    7.25    1.93 
   6  -7  -3    7.23    1.76 
  -6   7   3    6.46    1.81 
  -6   7   2    0.55    0.31 
   6  -7  -2    1.72    0.87 
  -6   7   2    0.69    0.24 
   6  -7  -1    1.55    0.83 
  -6   7   1   -0.20    0.70 
   6  -7   0    8.28    1.94 
  -6   7   0    5.01    1.62 
   6  -7   1   19.74    3.04 
   6  -7   2   -0.29    0.38 
   6  -7   3    5.27    1.70 
   6  -7   4   -0.84    0.71 
   6  -7   5    1.33    1.04 
   6  -7   5   -0.08    0.54 
   6  -7   6    0.70    0.33 
   6  -7   6    2.18    1.35 
   6  -7   7    1.12    1.35 
   6  -7   7    0.38    0.46 
   6  -7   8   -0.28    0.67 
   6  -7   8   -0.69    0.34 
   6  -7   9    0.63    0.61 
   6  -7   9    2.30    1.83 
   6  -7  10   -0.97    1.01 
  -6   6   9   -0.10    1.07 
  -6   6   8    1.81    1.00 
  -6   6   7    0.75    0.85 
   6  -6  -6    5.31    1.48 
  -6   6   6    6.66    1.89 
   6  -6  -5    0.35    0.41 
  -6   6   5   -0.35    0.29 
  -6   6   4    2.61    1.01 
   6  -6  -4    4.25    1.00 
   6  -6  -3    1.25    0.80 
  -6   6   3    2.17    1.41 
  -6   6   3    1.56    1.01 
   6  -6  -2    1.11    0.66 
  -6   6   2    1.01    0.84 
   6  -6  -1   12.98    2.30 
  -6   6   1   17.56    1.34 
  -6   6   1   20.62    3.27 
  -6   6   0    0.87    0.35 
  -6   6   0    1.19    0.94 
   6  -6   0    0.60    0.50 
   6  -6   1    0.64    0.51 
  -6   6  -2    0.25    0.21 
   6  -6   2    1.43    0.78 
   6  -6   3    1.26    1.64 
  -6   6  -3   -0.10    0.26 
   6  -6   4    0.60    0.19 
   6  -6   4   -0.05    0.73 
   6  -6   5    0.97    0.67 
   6  -6   5    0.93    0.34 
   6  -6   6    1.65    1.07 
   6  -6   6    1.81    1.28 
   6  -6   7    3.95    1.86 
   6  -6   7    5.78    1.80 
   6  -6   8    5.24    1.62 
   6  -6   8    3.00    1.82 
   6  -6   9    0.21    0.87 
   6  -6   9   -1.30    1.18 
   6  -6  10    2.69    1.01 
   6  -6  10    4.45    2.48 
  -6   5  10    0.86    0.86 
  -6   5   9   -1.27    0.85 
  -6   5   8   -0.07    0.59 
  -6   5   7    0.02    0.24 
   6  -5  -6    8.60    1.87 
  -6   5   6    8.32    1.90 
   6  -5  -5    1.35    0.78 
  -6   5   5    1.99    0.79 
  -6   5   4    0.27    0.30 
   6  -5  -4    0.26    0.36 
   6  -5  -3    1.40    0.59 
  -6   5   3    1.63    1.03 
  -6   5   3    2.11    1.05 
  -6   5   2    9.65    2.29 
   6  -5  -2    5.80    1.50 
  -6   5   2    8.95    1.87 
  -6   5   1    4.17    1.52 
   6  -5  -1    3.09    1.12 
   6  -5   0    2.89    0.96 
  -6   5   0    3.20    0.74 
  -6   5   0    2.12    1.34 
  -6   5   0    2.64    0.60 
  -6   5  -1    0.95    0.67 
  -6   5  -1    0.32    0.32 
  -6   5  -1   -0.15    0.28 
   6  -5   1   -0.18    0.25 
  -6   5  -1    0.81    0.65 
  -6   5  -2    3.59    0.72 
   6  -5   2    3.53    1.14 
  -6   5  -2    5.29    1.36 
  -6   5  -2    3.07    0.75 
   6  -5   3    0.52    0.40 
  -6   5  -3   -0.18    0.36 
  -6   5  -3    0.34    0.26 
   6  -5   4    7.65    1.94 
  -6   5  -4    9.33    1.77 
   6  -5   4    8.56    2.23 
   6  -5   5    1.33    0.76 
   6  -5   5    0.77    0.83 
   6  -5   6   -0.04    0.57 
   6  -5   6    0.13    0.53 
   6  -5   7   10.69    3.05 
   6  -5   7   12.07    2.36 
   6  -5   8    7.27    1.90 
   6  -5   8    6.99    2.58 
   6  -5   9    3.01    1.18 
   6  -5   9    7.05    2.72 
   6  -5  10    3.27    1.22 
   6  -5  10    2.41    1.90 
   6  -5  11    2.25    1.11 
  -6   4  11    0.85    0.85 
  -6   4  10   -0.03    0.17 
  -6   4   9    0.72    0.81 
  -6   4   8    0.36    0.36 
  -6   4   7    0.05    0.35 
  -6   4   6    1.31    0.56 
  -6   4   5    1.13    0.70 
   6  -4  -5    1.01    0.65 
  -6   4   4    2.31    0.88 
   6  -4  -4    3.11    1.00 
  -6   4   3   14.98    2.16 
   6  -4  -3   14.02    1.98 
  -6   4   2   12.43    1.98 
  -6   4   2   12.58    2.50 
  -6   4   2   11.06    1.74 
   6  -4  -2   12.03    1.96 
  -6   4   1   26.45    3.95 
  -6   4   1   18.67    2.11 
   6  -4   0   14.90    2.20 
  -6   4   0   18.68    2.50 
  -6   4   0   21.03    3.48 
  -6   4   0   17.28    2.01 
   6  -4   1   48.18    4.00 
  -6   4  -1   49.85    4.11 
  -6   4  -1   41.43    4.79 
  -6   4  -1   49.79    2.92 
  -6   4  -1   53.54    3.61 
   6  -4   2   17.47    2.41 
  -6   4  -2   18.90    2.58 
  -6   4  -2   15.26    2.13 
  -6   4  -2   21.58    1.98 
  -6   4  -2   16.21    2.03 
   6  -4   3    9.53    2.33 
   6  -4   3   11.15    2.00 
  -6   4  -3   10.74    1.67 
  -6   4  -3    8.23    1.23 
   6  -4   4   47.20    4.34 
  -6   4  -4   44.46    3.51 
   6  -4   4   34.17    4.74 
   6  -4   5    4.96    1.38 
  -6   4  -5    5.13    1.26 
   6  -4   5    6.44    2.22 
   6  -4   6    3.77    1.77 
   6  -4   6    1.88    0.79 
   6  -4   7   15.07    2.44 
   6  -4   7   10.09    2.98 
   6  -4   8   -1.18    0.69 
   6  -4   8    1.53    1.43 
   6  -4   9    3.39    1.20 
   6  -4   9    4.24    2.06 
   6  -4  10   -0.01    0.10 
   6  -4  10   -2.84    2.07 
  -6   3  11    0.47    0.44 
  -6   3  10   -0.05    0.78 
  -6   3   9   -0.09    0.39 
  -6   3   8    0.35    0.41 
  -6   3   7   -0.31    0.67 
  -6   3   6    8.47    1.80 
  -6   3   5    6.10    1.43 
   6  -3  -5    7.36    1.74 
  -6   3   4    0.38    0.51 
   6  -3  -4    0.22    0.16 
  -6   3   3    1.99    0.86 
   6  -3  -3    0.55    0.47 
  -6   3   3    0.85    0.44 
  -6   3   2   47.85    4.54 
  -6   3   2   54.70    3.75 
  -6   3   2   42.72    3.59 
  -6   3   1  135.39    6.75 
  -6   3   1  115.86    5.44 
  -6   3   1  119.85    8.73 
  -6   3   1  115.62    6.01 
   6  -3  -1  112.11    5.63 
  -6   3   0   13.81    2.03 
  -6   3   0   13.20    1.94 
  -6   3   0   12.29    2.71 
   6  -3   0   11.94    1.80 
   6  -3   1   38.25    3.26 
  -6   3  -1   43.85    3.62 
  -6   3  -1   35.21    2.84 
  -6   3  -1   40.62    2.79 
  -6   3  -1   37.12    3.34 
   6  -3   2  147.85    6.58 
  -6   3  -2  138.81    6.43 
  -6   3  -2  130.42    5.27 
  -6   3  -2  141.86    6.80 
  -6   3  -3  171.06    6.23 
  -6   3  -3  170.66    6.14 
   6  -3   4   17.72    2.50 
  -6   3  -4   12.36    1.69 
  -6   3  -4   17.56    1.97 
   6  -3   4   14.01    3.16 
   6  -3   5    0.04    0.28 
  -6   3  -5    0.99    0.65 
   6  -3   5    0.09    0.71 
   6  -3   6   15.18    2.25 
  -6   3  -6   13.12    1.92 
   6  -3   6   19.36    3.99 
   6  -3   7    0.11    0.51 
   6  -3   7   -1.96    1.16 
   6  -3   8   -1.06    0.61 
   6  -3   8    0.37    1.04 
   6  -3   9    1.41    0.73 
   6  -3   9    1.86    1.20 
   6  -3  10    3.44    1.18 
   6  -3  10    2.36    1.74 
  -6   2  11    0.64    0.86 
  -6   2  10    0.40    0.81 
  -6   2   9    0.83    0.47 
  -6   2   8    0.29    0.55 
  -6   2   7    0.82    0.33 
  -6   2   6   10.97    2.02 
  -6   2   5    3.61    1.04 
  -6   2   4   30.40    3.00 
   6  -2  -4   24.62    3.04 
  -6   2   4   27.10    3.43 
  -6   2   3   -0.08    0.29 
  -6   2   3    0.37    0.36 
  -6   2   3    0.56    0.23 
  -6   2   2  110.76    6.09 
  -6   2   2  111.93    5.10 
  -6   2   1   31.10    3.19 
  -6   2   1   25.82    2.33 
  -6   2   1   24.36    2.90 
  -6   2   0   21.77    2.43 
  -6   2   0   19.80    1.90 
  -6   2   0   17.53    2.53 
   6  -2   0   18.98    2.12 
  -6   2  -1   28.38    2.70 
  -6   2  -1   28.99    2.30 
  -6   2  -1   34.16    2.74 
  -6   2  -1   30.45    3.30 
   6  -2   1   27.85    2.54 
   6  -2   2   74.01    4.19 
  -6   2  -2   76.60    4.46 
  -6   2  -2   68.40    3.34 
  -6   2  -2   71.59    4.08 
  -6   2  -2   79.01    5.51 
   6  -2   3   39.15    3.04 
  -6   2  -3   37.07    2.50 
  -6   2  -3   43.69    3.32 
   6  -2   3   33.23    4.49 
   6  -2   4    9.26    1.55 
  -6   2  -4    8.85    1.28 
   6  -2   4    9.70    2.55 
  -6   2  -4   10.01    1.58 
   6  -2   5    9.58    1.73 
  -6   2  -5    7.82    1.23 
   6  -2   5    9.43    2.72 
  -6   2  -5    8.64    1.51 
   6  -2   6    1.56    1.45 
   6  -2   6    0.23    0.19 
   6  -2   7    3.28    1.73 
   6  -2   7    2.50    0.92 
   6  -2   8    3.84    1.09 
   6  -2   8    3.14    1.77 
   6  -2   9    0.66    0.60 
   6  -2   9    0.52    1.55 
   6  -2  10    0.69    1.21 
  -6   1  11    0.93    0.75 
  -6   1  10    1.53    0.91 
  -6   1   9    1.52    0.85 
  -6   1   8   34.03    3.88 
  -6   1   7    7.87    1.82 
  -6   1   6   29.83    3.26 
  -6   1   5   13.84    2.13 
  -6   1   5   12.15    2.50 
  -6   1   4   30.82    3.22 
  -6   1   4   29.24    2.79 
  -6   1   4   31.13    3.81 
  -6   1   3   22.51    2.66 
  -6   1   3   24.50    2.37 
  -6   1   3   22.66    2.98 
  -6   1   2   26.13    2.80 
  -6   1   2   26.03    2.26 
  -6   1   2   26.23    3.26 
  -6   1   1   -0.08    0.59 
  -6   1   1    0.58    0.30 
  -6   1   0    6.82    1.34 
  -6   1   0    8.44    1.11 
  -6   1   0    7.06    1.69 
  -6   1  -1   -0.18    0.25 
  -6   1  -1    0.17    0.20 
  -6   1  -1   -0.01    0.04 
  -6   1  -1    0.09    0.15 
   6  -1   2    0.56    0.36 
  -6   1  -2    0.06    0.08 
  -6   1  -2    0.11    0.08 
  -6   1  -2    0.14    0.28 
  -6   1  -2    0.00    0.21 
  -6   1  -3    2.76    0.86 
   6  -1   3    1.30    0.49 
   6  -1   3    0.93    0.76 
  -6   1  -3    1.69    0.41 
  -6   1  -4    5.84    1.29 
   6  -1   4    4.00    0.88 
  -6   1  -4    3.92    0.63 
   6  -1   4    6.35    2.09 
  -6   1  -5   -0.04    0.11 
   6  -1   5    0.37    0.31 
  -6   1  -5    0.13    0.14 
   6  -1   6    1.49    1.76 
   6  -1   6    2.84    0.93 
   6  -1   7    1.26    1.48 
   6  -1   7    3.64    0.98 
   6  -1   8    2.95    0.91 
   6  -1   8    3.19    2.13 
   6  -1   9    0.43    1.20 
  -6   0  11   10.72    2.61 
  -6   0  10    0.59    0.57 
  -6   0   9    2.96    1.04 
  -6   0   8   47.85    4.70 
  -6   0   7   13.95    2.32 
  -6   0   6   72.20    4.91 
  -6   0   6   69.41    6.50 
  -6   0   5    2.45    1.38 
  -6   0   5    2.50    0.78 
   6   0  -5    1.05    0.57 
  -6   0   4    0.46    0.14 
  -6   0   4   -0.17    0.36 
  -6   0   4    0.26    0.35 
  -6   0   3   19.16    2.42 
  -6   0   3   21.19    2.13 
  -6   0   3   18.42    2.97 
  -6   0   2    2.32    1.05 
  -6   0   2    2.73    0.83 
  -6   0   2    2.36    0.63 
  -6   0   1   19.30    2.23 
  -6   0   1   18.49    1.56 
  -6   0   1   18.83    3.00 
  -6   0   0   18.57    2.02 
  -6   0   0   16.24    1.19 
  -6   0   0   17.95    2.86 
  -6   0  -1    0.41    0.38 
  -6   0  -1    1.29    1.04 
  -6   0  -2    0.28    0.41 
   6   0   3    3.24    1.43 
  -6   0  -3    2.17    0.77 
  -6   0  -4    3.16    1.00 
   6   0   4    2.23    0.52 
   6   0   5   -0.16    0.55 
   6   0   5    0.20    0.07 
  -6   0  -5    0.46    0.41 
   6   0   6   10.70    1.26 
  -6   0  -6    7.77    1.61 
   6   0   6   10.27    3.02 
   6   0   7    0.95    1.35 
   6   0   8   -0.46    1.42 
   6   0   9    0.28    1.29 
  -6  -1  11    0.49    0.59 
  -6  -1  10    3.48    1.44 
  -6  -1   9   -0.76    0.64 
  -6  -1   8    2.35    1.04 
  -6  -1   7    9.10    1.95 
  -6  -1   6   11.66    2.04 
  -6  -1   6   10.91    2.68 
  -6  -1   5   -0.05    0.43 
  -6  -1   5    0.70    0.46 
   6   1  -5    0.22    0.33 
  -6  -1   4    1.35    0.63 
  -6  -1   4    0.87    0.60 
  -6  -1   4    1.15    0.52 
   6   1  -4    1.98    0.81 
  -6  -1   3    0.50    0.24 
  -6  -1   3    0.12    0.26 
  -6  -1   2    4.15    1.60 
  -6  -1   2    3.81    0.97 
  -6  -1   2    5.29    0.95 
  -6  -1   1   29.84    2.60 
  -6  -1   1   34.77    1.94 
  -6  -1   1   31.41    4.04 
  -6  -1   0    0.17    0.12 
  -6  -1   0    0.07    0.68 
  -6  -1  -1    0.24    0.19 
  -6  -1  -1    0.38    0.43 
  -6  -1  -2    1.74    0.65 
  -6  -1  -3    2.72    0.92 
  -6  -1  -4    9.64    1.79 
   6   1   4    8.87    2.45 
   6   1   5   10.25    2.87 
  -6  -1  -5   12.94    2.10 
  -6  -1  -6    0.85    0.55 
   6   1   6    0.62    0.66 
   6   1   7    0.67    1.16 
   6   1   8    1.12    0.73 
   6   1   9    0.38    0.79 
  -6  -2  11   -1.10    0.93 
  -6  -2  10   -0.48    0.31 
  -6  -2   9    1.90    1.02 
  -6  -2   8    1.27    0.79 
  -6  -2   7    2.26    1.55 
  -6  -2   7    3.37    1.20 
  -6  -2   6    0.82    1.04 
  -6  -2   6    2.11    0.84 
  -6  -2   5   -0.44    0.37 
   6   2  -5   -0.18    0.14 
  -6  -2   4   -1.34    0.63 
  -6  -2   4   -0.41    0.62 
  -6  -2   4   -0.40    0.33 
   6   2  -4    0.18    0.15 
  -6  -2   3    0.35    0.56 
  -6  -2   3    1.08    0.49 
  -6  -2   3    0.87    0.42 
   6   2  -3    1.08    0.47 
  -6  -2   2    1.58    1.13 
  -6  -2   2    1.67    0.62 
  -6  -2   2    1.28    0.43 
  -6  -2   1    7.48    1.18 
  -6  -2   1    6.21    0.64 
  -6  -2   1    7.96    2.19 
  -6  -2   0   14.50    1.55 
  -6  -2   0   14.67    2.92 
  -6  -2  -1    0.88    0.28 
  -6  -2  -1   -0.06    0.66 
  -6  -2  -2   18.39    2.47 
  -6  -2  -3    0.74    0.45 
  -6  -2  -4    1.57    0.90 
   6   2   4    2.88    1.43 
  -6  -2  -5    0.70    0.64 
   6   2   5   -1.34    1.18 
   6   2   6    2.05    1.73 
  -6  -2  -6    0.35    0.46 
   6   2   7   -0.04    1.24 
   6   2   8    2.02    2.06 
   6   2   9   -0.23    0.90 
  -6  -3  11    0.67    0.61 
  -6  -3  10    3.41    1.43 
  -6  -3   9    2.87    1.24 
  -6  -3   8   -0.15    0.27 
  -6  -3   7    6.09    2.03 
  -6  -3   7    3.59    1.22 
  -6  -3   6    0.91    0.54 
  -6  -3   6    1.57    0.75 
  -6  -3   5    1.49    1.31 
  -6  -3   5    0.38    0.34 
   6   3  -5    1.68    0.72 
  -6  -3   4   24.14    2.49 
   6   3  -4   21.99    2.27 
  -6  -3   4   26.98    4.23 
  -6  -3   3    5.99    1.97 
  -6  -3   3    4.70    1.08 
  -6  -3   3    5.53    1.03 
   6   3  -3    5.18    0.95 
  -6  -3   2    1.21    1.00 
  -6  -3   2    1.03    0.50 
  -6  -3   2    1.00    0.26 
  -6  -3   1   11.76    1.43 
  -6  -3   1   11.38    2.77 
  -6  -3   0    1.54    0.49 
  -6  -3   0    0.79    0.96 
  -6  -3  -1   -0.18    0.59 
  -6  -3  -2    5.06    1.35 
  -6  -3  -2    4.38    1.80 
  -6  -3  -3    2.16    0.86 
  -6  -3  -4    5.80    1.50 
  -6  -3  -5    0.58    0.59 
   6   3   5    0.27    0.48 
  -6  -3  -6    1.42    0.78 
   6   3   6   -0.54    0.69 
   6   3   7    1.92    1.61 
   6   3   8    3.51    2.42 
  -6  -4  11    1.20    0.44 
  -6  -4  10    0.05    0.29 
  -6  -4   9    3.78    1.44 
  -6  -4   8    2.17    1.04 
  -6  -4   7    2.20    1.65 
  -6  -4   7    0.42    0.49 
  -6  -4   6    9.54    1.86 
  -6  -4   6    5.68    2.34 
  -6  -4   5    5.77    2.09 
  -6  -4   5    1.43    0.66 
  -6  -4   4    4.76    1.89 
  -6  -4   4    6.24    1.25 
   6   4  -4    6.48    1.26 
  -6  -4   3   13.15    1.74 
  -6  -4   3   12.84    3.01 
   6   4  -3    8.95    1.31 
  -6  -4   2    3.54    1.93 
   6   4  -2    1.88    0.42 
  -6  -4   1    1.08    0.57 
  -6  -4   0   12.44    2.96 
  -6  -4  -1   25.97    4.26 
  -6  -4  -2    0.81    0.68 
  -6  -4  -2   -0.14    0.50 
  -6  -4  -3   -0.39    0.53 
  -6  -4  -4   -0.58    0.70 
  -6  -4  -5   -0.05    0.45 
  -6  -4  -6    0.73    0.48 
   6   4   6    3.07    1.95 
   6   4   7    0.48    0.76 
   6   4   8    2.50    2.21 
  -6  -5  10   -0.29    0.78 
  -6  -5   9    2.68    1.23 
  -6  -5   8    0.62    0.64 
  -6  -5   8   -0.28    0.77 
  -6  -5   7    1.62    1.34 
  -6  -5   7    2.26    0.97 
  -6  -5   6   -0.20    0.50 
  -6  -5   6    0.03    0.19 
  -6  -5   5    1.23    1.17 
  -6  -5   5    1.10    0.61 
  -6  -5   4    0.85    0.48 
  -6  -5   4    0.55    0.42 
  -6  -5   3    1.78    1.30 
  -6  -5   2    0.89    0.81 
  -6  -5   1   -0.12    0.25 
  -6  -5   0   24.44    4.38 
  -6  -5  -1    1.36    0.94 
  -6  -5  -1    2.34    1.18 
  -6  -5  -2   -0.23    0.42 
  -6  -5  -2    0.46    0.76 
  -6  -5  -3    0.82    0.58 
  -6  -5  -4    2.00    1.11 
  -6  -5  -5   -0.06    0.53 
  -6  -5  -6    0.57    0.79 
   6   5   7    2.62    1.49 
  -6  -6   9    0.27    0.35 
  -6  -6   8    0.44    0.58 
  -6  -6   7   -1.15    1.53 
  -6  -6   7    0.10    1.17 
  -6  -6   6   -0.03    0.84 
  -6  -6   5    1.12    0.87 
  -6  -6   4    3.37    2.06 
  -6  -6   3    1.20    1.36 
  -6  -6   2    2.09    1.09 
  -6  -6   1    8.52    2.71 
  -6  -6   0    0.94    0.97 
  -6  -6  -1    6.87    1.77 
  -6  -6  -1    8.84    2.71 
  -6  -6  -2   -0.32    0.89 
  -6  -6  -2    0.09    0.40 
  -6  -6  -3    0.85    0.88 
  -6  -6  -3    0.42    0.62 
  -6  -6  -4    5.34    1.63 
  -6  -6  -5    3.14    1.45 
  -6  -7   5   -0.12    0.67 
  -6  -7   4    2.92    2.00 
  -6  -7   3    0.71    1.16 
  -6  -7   2    0.30    1.22 
  -6  -7   1    3.06    1.47 
  -6  -7   0    1.78    1.31 
  -6  -7  -1    4.06    1.52 
  -6  -7  -1    4.56    2.01 
  -6  -7  -2   -0.41    1.26 
  -6  -7  -2    0.88    0.52 
  -6  -7  -3    3.16    1.58 
  -6  -8   0   -0.43    0.46 
   7 -10  -3    2.06    0.96 
  -7  10   3    2.41    1.32 
   7 -10  -2    1.01    1.06 
   7 -10  -1    0.34    0.69 
   7 -10   0   -0.27    0.90 
   7 -10   1    0.29    0.97 
   7 -10   2   -0.43    0.35 
   7 -10   3   -1.16    0.27 
  -7   9   5    1.36    0.79 
  -7   9   4    6.26    1.98 
   7  -9  -3   -0.98    0.63 
  -7   9   3    0.04    0.50 
   7  -9  -2    1.80    0.70 
   7  -9  -1   -0.20    0.82 
   7  -9   0    1.20    0.86 
   7  -9   1   -0.43    0.18 
   7  -9   2    1.97    1.10 
   7  -9   3   -0.75    0.65 
   7  -9   4    0.28    0.89 
   7  -9   5   -0.57    0.67 
  -7   8   7   -0.15    0.60 
  -7   8   6   -1.94    1.10 
  -7   8   5    3.08    1.05 
  -7   8   4   16.51    3.17 
   7  -8  -3    0.68    0.22 
  -7   8   3    0.96    1.07 
   7  -8  -2    3.11    1.26 
   7  -8  -1    3.81    1.43 
   7  -8   0    1.74    0.97 
   7  -8   1    7.06    1.98 
   7  -8   2    2.07    1.07 
   7  -8   3    2.30    1.16 
   7  -8   4   -0.30    0.78 
   7  -8   5    0.12    0.89 
   7  -8   6   -1.04    1.29 
   7  -8   6   -1.56    1.42 
   7  -8   7   -0.31    0.66 
   7  -8   7   -2.04    1.51 
   7  -8   8   -0.14    0.86 
  -7   7   8   -2.79    1.35 
  -7   7   7    1.00    0.85 
  -7   7   6    2.10    1.07 
  -7   7   5    1.07    1.02 
  -7   7   4    8.32    2.02 
   7  -7  -3    4.61    1.57 
  -7   7   3    3.17    1.25 
   7  -7  -2    4.63    1.54 
  -7   7   2    9.20    2.24 
  -7   7   2    8.35    0.96 
  -7   7   1    4.65    0.69 
   7  -7  -1    1.74    0.92 
   7  -7   0    1.98    0.98 
   7  -7   1    8.09    2.01 
   7  -7   2    2.83    1.17 
   7  -7   3    5.52    1.69 
   7  -7   4   -0.39    0.75 
   7  -7   5    1.07    0.80 
   7  -7   6   -0.47    0.53 
   7  -7   6    0.74    1.18 
   7  -7   7    0.97    1.13 
   7  -7   7    2.08    0.83 
   7  -7   8    0.57    0.63 
   7  -7   8    1.23    2.02 
   7  -7   9    0.62    0.67 
   7  -7   9    2.72    1.99 
  -7   6   9   -0.40    0.81 
  -7   6   8    0.44    0.18 
  -7   6   7    1.08    0.94 
  -7   6   6    0.89    0.76 
  -7   6   5    2.48    1.31 
  -7   6   4    4.08    1.34 
  -7   6   3    0.56    0.42 
   7  -6  -2   -0.49    0.77 
  -7   6   2   -0.38    0.49 
   7  -6  -1   -0.05    0.28 
  -7   6   1   -0.29    0.34 
  -7   6   0    0.99    0.39 
   7  -6   0    1.64    0.85 
  -7   6  -1    0.37    0.24 
   7  -6   1    0.99    0.67 
  -7   6  -1    0.56    0.35 
   7  -6   2    3.94    1.30 
   7  -6   3    0.56    0.52 
   7  -6   4   -0.54    0.52 
   7  -6   5    0.39    0.56 
   7  -6   5    0.85    0.30 
   7  -6   6    0.33    0.52 
   7  -6   6    0.18    0.94 
   7  -6   7    1.56    1.13 
   7  -6   7    1.23    2.03 
   7  -6   8    1.17    0.82 
   7  -6   8   -0.03    1.01 
   7  -6   9   -0.73    1.88 
   7  -6   9    0.89    0.63 
  -7   5   9    1.11    1.14 
  -7   5   8    6.21    1.87 
  -7   5   7    0.02    0.71 
  -7   5   6    0.22    0.42 
  -7   5   5    0.42    0.42 
  -7   5   4   -1.67    0.84 
  -7   5   3    1.33    0.74 
   7  -5  -2    1.73    0.76 
  -7   5   2    3.58    1.10 
  -7   5   1   13.85    2.32 
  -7   5   1   12.50    1.81 
   7  -5  -1   11.41    2.10 
   7  -5   0   -0.08    0.19 
  -7   5   0    0.30    0.35 
  -7   5   0    0.51    0.33 
  -7   5  -1    0.58    0.50 
  -7   5  -1    0.31    0.37 
   7  -5   1    1.34    0.72 
  -7   5  -1    1.02    0.68 
  -7   5  -2    0.47    0.42 
  -7   5  -2   -0.04    0.23 
   7  -5   2   -0.13    0.40 
  -7   5  -2    0.71    0.51 
   7  -5   3    1.58    0.80 
  -7   5  -3    0.89    0.46 
   7  -5   4    0.09    0.22 
  -7   5  -4    0.96    0.56 
   7  -5   5    3.79    1.44 
   7  -5   5    5.08    1.96 
   7  -5   6    5.81    2.25 
   7  -5   7    0.00    0.19 
   7  -5   7    1.56    1.64 
   7  -5   8    2.26    1.11 
   7  -5   8   -1.20    1.35 
   7  -5   9   -1.82    1.08 
   7  -5   9   -1.28    0.97 
  -7   4  10    1.02    0.67 
  -7   4   9   -0.05    0.41 
  -7   4   8    6.48    1.85 
  -7   4   7    1.83    0.95 
  -7   4   6    1.02    0.81 
  -7   4   5    7.27    1.81 
  -7   4   4    6.16    1.55 
  -7   4   3   34.77    3.54 
  -7   4   2    6.86    1.57 
  -7   4   2    6.68    1.39 
   7  -4  -1   -0.26    0.26 
  -7   4   1   -0.41    0.49 
  -7   4   1   -0.10    0.15 
  -7   4   0    2.53    1.03 
   7  -4   0    0.65    0.46 
   7  -4   1   13.38    2.20 
  -7   4  -1   12.02    1.94 
  -7   4  -1   14.51    2.09 
  -7   4  -1   11.71    1.58 
  -7   4  -2    1.29    0.65 
   7  -4   2    1.90    0.82 
  -7   4  -2    1.55    0.68 
  -7   4  -2    0.33    0.44 
   7  -4   3   16.85    2.47 
  -7   4  -3   20.15    2.32 
  -7   4  -3   15.59    2.31 
  -7   4  -3   19.67    2.12 
   7  -4   4   17.47    2.53 
   7  -4   5   26.44    3.23 
   7  -4   5   22.34    4.10 
   7  -4   6    3.84    1.88 
   7  -4   6    1.61    0.64 
   7  -4   7    0.24    0.62 
   7  -4   7    1.13    1.57 
   7  -4   8    0.97    1.97 
   7  -4   8    2.23    0.99 
  -7   3  10   -0.45    0.63 
  -7   3   9   -0.62    0.90 
  -7   3   8   -0.77    0.98 
  -7   3   7    0.37    0.32 
  -7   3   6    1.14    0.75 
  -7   3   5    3.29    1.11 
  -7   3   4    4.31    1.21 
  -7   3   3    3.86    1.31 
  -7   3   3    3.25    1.02 
  -7   3   2    0.00    0.23 
  -7   3   2    0.14    0.46 
  -7   3   1    0.30    0.42 
  -7   3   1   -0.06    0.22 
  -7   3   0   61.60    4.61 
  -7   3   0   65.62    4.06 
  -7   3   0   66.83    4.98 
   7  -3   0   66.42    4.51 
   7  -3   1    0.18    0.23 
  -7   3  -1    0.80    0.59 
  -7   3  -1    1.45    0.70 
  -7   3  -1    0.74    0.51 
  -7   3  -1   -0.33    0.29 
  -7   3  -1    0.09    0.41 
  -7   3  -2    0.30    0.41 
   7  -3   2    0.15    0.33 
  -7   3  -2    0.20    0.38 
  -7   3  -2    0.11    0.58 
  -7   3  -2    0.28    0.32 
  -7   3  -3    4.16    1.07 
   7  -3   3    5.62    1.32 
  -7   3  -3    4.53    1.00 
  -7   3  -3    5.29    1.51 
   7  -3   4   19.19    2.39 
  -7   3  -4   17.81    2.19 
   7  -3   4   16.53    3.50 
   7  -3   5   10.29    1.83 
   7  -3   5    5.61    2.08 
   7  -3   6    0.73    1.22 
   7  -3   6   -0.06    0.46 
   7  -3   7    0.17    0.28 
   7  -3   7   -0.84    0.79 
   7  -3   8    0.36    0.50 
   7  -3   8    0.37    1.12 
  -7   2  10    0.63    0.74 
  -7   2   9   -0.59    0.32 
  -7   2   8    1.32    0.22 
  -7   2   7    2.80    1.28 
  -7   2   6   38.78    3.93 
  -7   2   5    0.25    0.31 
  -7   2   4   10.42    1.83 
  -7   2   4   11.88    2.48 
  -7   2   3   70.65    4.47 
  -7   2   3   62.63    5.32 
  -7   2   2    0.74    0.53 
  -7   2   2    1.23    0.46 
  -7   2   1    8.90    1.98 
  -7   2   1    9.07    1.45 
  -7   2   1    8.19    1.69 
  -7   2   0   23.94    2.70 
  -7   2   0   22.54    2.16 
  -7   2   0   26.11    3.35 
  -7   2  -1   13.74    2.06 
  -7   2  -1   16.33    1.79 
  -7   2  -1   15.84    1.65 
  -7   2  -1   15.40    2.05 
  -7   2  -1   15.37    2.59 
   7  -2   1   13.57    1.86 
  -7   2  -2    0.11    0.13 
  -7   2  -2    0.13    0.29 
  -7   2  -2   -0.04    0.26 
  -7   2  -3    1.55    0.84 
   7  -2   3    3.06    0.88 
   7  -2   4    2.32    1.33 
  -7   2  -4    1.72    0.79 
   7  -2   4    2.78    0.85 
   7  -2   5    4.01    1.78 
   7  -2   5    4.68    1.09 
  -7   2  -5    2.27    1.02 
   7  -2   6    0.38    0.57 
   7  -2   6    0.64    0.78 
   7  -2   7    0.72    0.74 
   7  -2   7   -0.45    1.17 
   7  -2   8    1.49    1.96 
  -7   1  11    0.88    0.76 
  -7   1  10   -0.52    0.54 
  -7   1   9   10.21    2.31 
  -7   1   8    0.87    0.63 
  -7   1   7    3.05    1.06 
  -7   1   6   93.25    6.06 
  -7   1   5    5.37    1.70 
  -7   1   5    7.44    1.55 
  -7   1   4   43.25    3.57 
  -7   1   4   41.64    4.78 
  -7   1   3    6.38    1.80 
  -7   1   3    6.17    1.20 
  -7   1   2   -0.25    0.48 
  -7   1   2    0.55    0.38 
  -7   1   1   26.65    2.90 
  -7   1   1   23.16    2.03 
  -7   1   1   26.43    3.56 
  -7   1   0    0.51    0.27 
  -7   1   0    0.77    0.45 
  -7   1   0    0.14    0.14 
  -7   1   0   -0.69    0.68 
  -7   1  -1    0.17    0.15 
  -7   1  -1   -0.18    0.21 
  -7   1  -1   -0.39    0.38 
  -7   1  -1   -0.04    0.08 
  -7   1  -1   -0.40    0.75 
  -7   1  -2    3.25    0.45 
  -7   1  -2    1.40    0.32 
  -7   1  -2    2.29    1.14 
  -7   1  -2    4.17    1.13 
  -7   1  -3    1.86    0.93 
   7  -1   3    3.22    0.77 
  -7   1  -4    3.28    1.08 
   7  -1   4    2.76    0.72 
   7  -1   5    0.62    0.47 
  -7   1  -5    0.56    0.46 
   7  -1   5    1.34    1.18 
   7  -1   6    4.61    2.07 
   7  -1   7    0.16    0.58 
   7  -1   8   -0.63    1.41 
  -7   0  11    4.25    1.73 
  -7   0  10    1.57    0.98 
  -7   0   9   13.33    2.67 
  -7   0   8   -1.22    0.74 
  -7   0   7    0.50    0.45 
  -7   0   6   19.19    2.58 
  -7   0   6   16.43    3.37 
  -7   0   5    2.65    1.66 
  -7   0   5    1.86    0.87 
  -7   0   4    3.93    1.37 
  -7   0   4    5.53    1.19 
  -7   0   3    0.65    0.40 
  -7   0   3    1.59    0.75 
  -7   0   3    0.31    0.26 
  -7   0   2   11.46    1.91 
  -7   0   2    7.31    2.03 
  -7   0   2    9.30    1.26 
  -7   0   1    0.95    1.08 
  -7   0   1    0.55    0.53 
  -7   0   1   -0.01    0.04 
  -7   0   0    0.76    0.43 
  -7   0   0    0.82    0.24 
  -7   0   0    1.03    0.26 
  -7   0   0   -0.01    0.31 
  -7   0  -1    2.25    0.69 
  -7   0  -1    3.10    1.35 
  -7   0  -2    4.03    1.51 
  -7   0  -2    4.57    1.23 
  -7   0  -3   -0.15    0.38 
  -7   0  -4    0.47    0.40 
  -7   0  -5    0.27    0.23 
   7   0   5    0.34    0.69 
  -7   0  -6    0.40    0.52 
   7   0   6   -0.64    0.57 
   7   0   7    6.51    2.65 
   7   0   8    0.19    0.80 
  -7  -1  11    1.15    0.74 
  -7  -1  10    5.40    1.86 
  -7  -1   9    1.80    1.02 
  -7  -1   8    5.26    1.62 
  -7  -1   7   -0.26    1.13 
  -7  -1   7   -0.15    0.43 
  -7  -1   6    0.08    1.28 
  -7  -1   6    1.02    0.63 
  -7  -1   5    1.86    1.45 
  -7  -1   5   -0.57    0.44 
  -7  -1   4    3.41    1.67 
  -7  -1   4    4.79    1.14 
  -7  -1   3    0.76    1.11 
  -7  -1   3    1.23    0.90 
  -7  -1   3    2.16    0.69 
  -7  -1   2   11.76    1.84 
  -7  -1   2   11.65    2.67 
  -7  -1   2   12.50    1.45 
  -7  -1   1    1.10    0.95 
  -7  -1   1    0.18    0.22 
  -7  -1   1    0.28    0.25 
  -7  -1   0    0.82    0.41 
  -7  -1   0    0.15    0.53 
  -7  -1  -1    3.17    1.30 
  -7  -1  -2    1.12    0.81 
  -7  -1  -2    0.72    0.68 
  -7  -1  -3    2.92    1.08 
  -7  -1  -4    7.73    1.75 
  -7  -1  -5    1.59    0.94 
   7   1   5    0.94    0.22 
   7   1   6   -0.86    1.32 
  -7  -1  -6   -0.13    0.44 
   7   1   7    1.93    1.66 
  -7  -2  10    2.42    1.28 
  -7  -2   9    0.56    0.62 
  -7  -2   8   -1.05    0.89 
  -7  -2   7    4.01    1.84 
  -7  -2   7    1.20    0.75 
  -7  -2   6   -0.14    0.69 
  -7  -2   6    0.03    0.37 
  -7  -2   5   -0.73    1.03 
  -7  -2   5    0.87    0.54 
  -7  -2   4    0.14    1.11 
  -7  -2   4   -0.71    0.43 
  -7  -2   3    0.59    0.70 
  -7  -2   3    1.08    0.46 
  -7  -2   2    3.71    1.38 
  -7  -2   2    4.68    0.72 
  -7  -2   1    2.39    1.37 
  -7  -2   0    1.51    0.75 
  -7  -2  -1    1.35    1.12 
  -7  -2  -2    5.18    1.42 
  -7  -2  -2    5.24    1.80 
  -7  -2  -3    4.36    1.28 
  -7  -2  -4    0.18    0.42 
  -7  -2  -5    1.55    0.86 
   7   2   6    0.24    0.99 
  -7  -2  -6    2.09    0.86 
   7   2   7    4.31    2.06 
  -7  -3  10    4.66    1.70 
  -7  -3   9    0.38    0.43 
  -7  -3   8   -0.21    0.50 
  -7  -3   7    1.61    1.22 
  -7  -3   7    3.84    1.28 
  -7  -3   6    3.84    1.76 
  -7  -3   6    2.77    1.02 
  -7  -3   5   -0.87    0.77 
  -7  -3   5   -0.31    0.21 
  -7  -3   4    6.19    2.27 
  -7  -3   4    6.13    1.23 
  -7  -3   3   -0.59    0.84 
  -7  -3   2    2.74    1.54 
  -7  -3   1    5.49    2.05 
  -7  -3   0    1.13    1.00 
  -7  -3  -1    0.15    0.40 
  -7  -3  -1   -1.16    0.87 
  -7  -3  -2    0.79    0.86 
  -7  -3  -2   -0.72    1.10 
  -7  -3  -3    0.42    0.79 
  -7  -3  -3    1.20    0.91 
  -7  -3  -4    1.11    0.67 
  -7  -3  -5    1.98    1.04 
  -7  -3  -6    0.64    0.38 
  -7  -4   9   -0.87    0.68 
  -7  -4   8    1.46    0.79 
  -7  -4   7    8.03    3.24 
  -7  -4   6    3.85    1.98 
  -7  -4   5    0.62    0.75 
  -7  -4   4    0.29    1.16 
  -7  -4   3   -0.15    0.76 
  -7  -4   2   -0.86    0.50 
  -7  -4   1    4.10    1.78 
  -7  -4   0    4.30    1.77 
  -7  -4  -1   -0.14    0.46 
  -7  -4  -1    0.32    0.57 
  -7  -4  -2    1.16    0.75 
  -7  -4  -2    0.18    0.86 
  -7  -4  -3   -1.17    1.01 
  -7  -4  -3    0.65    0.73 
  -7  -4  -4   -0.37    0.82 
  -7  -4  -5   -0.54    0.79 
  -7  -5   6    1.83    1.54 
  -7  -5   5    1.75    1.25 
  -7  -5   4    3.00    1.52 
  -7  -5   3    0.46    1.07 
  -7  -5   2    3.83    2.39 
  -7  -5   1    9.18    2.96 
  -7  -5   0    5.56    2.33 
  -7  -5  -1   10.36    2.25 
  -7  -5  -1    9.18    3.02 
  -7  -5  -2    3.33    1.38 
  -7  -5  -2    2.33    1.04 
  -7  -5  -3    3.00    1.66 
  -7  -5  -3    3.79    1.45 
  -7  -6   3    0.52    1.38 
  -7  -6   2   -1.05    1.17 
  -7  -6   1   -1.52    1.30 
  -7  -6   0   -1.00    1.19 
  -7  -6  -1    4.81    1.65 
  -8   9   4   -0.46    0.66 
  -8   9   3    5.14    1.92 
   8  -9  -2    4.57    1.67 
  -8   9   2    2.83    1.39 
   8  -9  -1    0.60    0.63 
   8  -9   0   -0.98    0.86 
   8  -9   1   -0.66    0.47 
   8  -9   2    2.63    1.72 
   8  -9   3    0.22    0.56 
  -8   8   5    1.54    0.99 
  -8   8   4    0.12    0.27 
  -8   8   3    6.63    2.01 
   8  -8  -2    1.08    0.80 
  -8   8   2    1.13    0.88 
   8  -8  -1    3.23    1.34 
   8  -8   0    0.58    0.57 
   8  -8   1   -0.61    0.65 
   8  -8   2    1.22    1.10 
   8  -8   3   -0.32    0.77 
   8  -8   4   -0.24    1.09 
   8  -8   5    0.57    1.20 
  -8   7   7    0.11    0.43 
  -8   7   6    0.55    0.60 
  -8   7   5   -2.69    1.25 
  -8   7   4    1.77    0.96 
  -8   7   3   -0.70    0.88 
   8  -7  -2   -0.34    0.42 
  -8   7   2    0.32    0.80 
   8  -7  -1    0.23    0.36 
  -8   7   1    1.06    0.75 
   8  -7   0    1.42    1.20 
   8  -7   1    2.40    1.13 
   8  -7   2    0.42    0.50 
   8  -7   3   -0.48    0.63 
   8  -7   4   -1.08    0.83 
   8  -7   5    1.25    0.69 
   8  -7   6    1.02    0.99 
   8  -7   7    0.64    0.44 
   8  -7   7    1.26    1.74 
  -8   6   8    4.03    1.62 
  -8   6   7    1.93    1.08 
  -8   6   6    0.35    0.33 
  -8   6   5    1.09    0.32 
  -8   6   4    1.18    0.77 
  -8   6   3    0.44    0.30 
  -8   6   2    1.67    1.01 
   8  -6  -1   -0.18    0.09 
  -8   6   1   -0.11    0.20 
  -8   6   1    0.69    1.02 
  -8   6   0    0.37    0.36 
   8  -6   0    0.31    0.40 
  -8   6  -1    2.28    0.59 
   8  -6   1    0.98    0.96 
   8  -6   2    2.95    1.19 
  -8   6  -2    1.46    0.59 
   8  -6   3    0.08    0.20 
   8  -6   4    0.73    0.63 
   8  -6   5    4.03    1.45 
   8  -6   6   -0.96    0.42 
   8  -6   7    2.02    1.10 
   8  -6   7    0.86    1.22 
   8  -6   8    1.52    0.82 
  -8   5   8    1.32    0.89 
  -8   5   7   -0.05    0.64 
  -8   5   6    1.67    0.93 
  -8   5   5    2.16    0.97 
  -8   5   4    0.50    0.47 
  -8   5   3   -1.33    0.75 
  -8   5   2   10.39    2.07 
  -8   5   1   12.63    2.24 
  -8   5   1   15.20    2.31 
  -8   5   1   16.21    1.96 
   8  -5  -1   11.36    2.18 
   8  -5   0    1.24    0.68 
  -8   5   0    0.14    0.53 
  -8   5   0    0.08    0.17 
  -8   5   0    0.83    0.80 
  -8   5  -1    0.37    0.41 
  -8   5  -1    0.34    0.45 
   8  -5   1    1.16    0.70 
  -8   5  -2    4.13    1.00 
   8  -5   2    3.96    1.30 
   8  -5   3    2.82    1.11 
  -8   5  -3    3.96    0.99 
   8  -5   4    0.49    0.19 
   8  -5   5    1.15    0.96 
   8  -5   6   -0.98    1.27 
   8  -5   6    0.19    0.21 
   8  -5   7    0.55    0.69 
   8  -5   7   -0.41    1.17 
  -8   4   9    1.03    1.20 
  -8   4   8    0.14    0.32 
  -8   4   7    1.07    0.86 
  -8   4   6   -0.44    0.47 
  -8   4   5    0.20    0.41 
  -8   4   4    0.75    0.54 
  -8   4   3    0.86    0.31 
  -8   4   2    1.82    0.98 
  -8   4   2    1.47    0.76 
  -8   4   1    3.27    1.10 
  -8   4   1    3.10    1.06 
  -8   4   0   12.12    2.23 
  -8   4   0   12.48    1.99 
  -8   4   0    9.84    1.62 
   8  -4   0    8.59    1.78 
  -8   4  -1    1.29    0.99 
   8  -4   1    0.86    0.61 
  -8   4  -1    0.89    0.70 
  -8   4  -1    0.68    0.56 
  -8   4  -2   -0.52    0.66 
  -8   4  -2    1.15    0.67 
   8  -4   2    0.68    0.66 
   8  -4   3   14.82    2.36 
  -8   4  -3   13.11    2.51 
  -8   4  -3   14.04    1.99 
   8  -4   4    3.39    1.16 
  -8   4  -4    3.07    0.96 
  -8   4  -4    2.05    1.01 
   8  -4   5    0.66    0.79 
   8  -4   6    0.65    0.75 
   8  -4   6    0.90    1.21 
   8  -4   7    0.62    1.18 
  -8   3   9    1.16    1.17 
  -8   3   8    0.37    0.50 
  -8   3   7   -0.06    0.18 
  -8   3   6    0.69    0.64 
  -8   3   5    5.23    1.40 
  -8   3   4    3.67    1.71 
  -8   3   4    3.40    1.12 
  -8   3   3    1.40    1.08 
  -8   3   3    4.25    1.19 
  -8   3   2    6.16    1.82 
  -8   3   2    6.33    1.35 
  -8   3   1    6.86    1.82 
  -8   3   1    8.08    1.50 
  -8   3   0    4.24    1.39 
  -8   3   0    2.72    0.91 
  -8   3   0    3.34    0.92 
  -8   3  -1    1.22    0.69 
   8  -3   1    0.66    0.48 
  -8   3  -1    0.11    0.36 
  -8   3  -1    0.51    0.26 
  -8   3  -2    7.89    1.56 
   8  -3   2    5.89    1.38 
  -8   3  -2    5.57    1.12 
  -8   3  -2    7.45    1.89 
  -8   3  -3   19.72    3.11 
  -8   3  -3   22.01    2.67 
   8  -3   3   20.56    2.53 
   8  -3   4    1.23    0.63 
  -8   3  -4    1.85    0.84 
  -8   3  -4    0.85    0.68 
   8  -3   5    0.43    0.58 
   8  -3   6    0.19    0.72 
   8  -3   7   -1.46    0.61 
  -8   2  10    0.26    0.44 
  -8   2   9    2.62    1.22 
  -8   2   8   -0.79    0.68 
  -8   2   7    0.55    0.33 
  -8   2   6    0.68    0.79 
  -8   2   5   -0.68    0.96 
  -8   2   5    0.97    0.78 
  -8   2   4   11.65    1.99 
  -8   2   4   12.14    2.75 
  -8   2   3    0.34    0.52 
  -8   2   3   -0.24    0.46 
  -8   2   2    5.20    2.03 
  -8   2   2    4.70    1.07 
  -8   2   1    1.32    1.24 
  -8   2   1    0.11    0.17 
  -8   2   0    0.80    0.84 
  -8   2   0    0.34    0.35 
  -8   2  -1    3.17    1.03 
  -8   2  -1    2.69    1.05 
  -8   2  -2    1.07    0.90 
  -8   2  -2    1.89    1.03 
  -8   2  -3    0.64    0.56 
   8  -2   3    0.60    0.39 
   8  -2   4    1.57    0.63 
  -8   2  -4    1.04    0.62 
  -8   2  -4    1.04    0.81 
  -8   2  -5    0.18    0.34 
   8  -2   6    1.14    0.47 
  -8   1  10   -1.28    1.04 
  -8   1   9    0.73    0.64 
  -8   1   8    7.90    1.93 
  -8   1   7    0.57    0.45 
  -8   1   6    4.08    1.25 
  -8   1   5    3.67    1.69 
  -8   1   5    2.88    1.00 
  -8   1   4    5.66    1.97 
  -8   1   4    6.90    1.49 
  -8   1   3    0.46    1.03 
  -8   1   3    0.78    0.46 
  -8   1   2    1.80    0.94 
  -8   1   2    1.12    0.60 
  -8   1   1    0.97    0.64 
  -8   1   0    6.39    1.95 
  -8   1  -1    0.94    0.73 
  -8   1  -1   -0.54    0.88 
  -8   1  -2    1.28    0.92 
  -8   1  -2    0.20    0.22 
  -8   1  -3    1.00    0.76 
  -8   1  -3   -0.39    0.80 
  -8   1  -4   -0.01    0.31 
  -8   1  -4    0.00    0.43 
  -8   1  -5    0.58    0.68 
  -8   1  -6    0.62    0.48 
   8  -1   6    0.40    0.62 
  -8   0  10    3.61    1.92 
  -8   0   9    0.53    0.88 
  -8   0   8    4.15    1.46 
  -8   0   7    0.93    0.65 
  -8   0   6    8.47    2.79 
  -8   0   6    4.39    1.29 
  -8   0   5    3.71    1.81 
  -8   0   5    3.91    1.12 
  -8   0   4    0.32    0.74 
  -8   0   4   -0.05    0.15 
  -8   0   3    1.09    0.92 
  -8   0   2    0.54    1.08 
  -8   0   1    0.86    0.97 
  -8   0   0    9.93    2.62 
  -8   0  -1   -0.31    0.33 
  -8   0  -1   -0.39    0.56 
  -8   0  -2    0.79    0.75 
  -8   0  -2    0.16    0.32 
  -8   0  -3    1.97    0.95 
  -8   0  -3    0.51    1.02 
  -8   0  -4   -1.06    0.91 
  -8   0  -4   -1.50    1.07 
  -8   0  -5    5.25    1.44 
  -8   0  -6    0.96    0.73 
  -8  -1   9    0.98    1.36 
  -8  -1   8    0.86    0.99 
  -8  -1   7   -0.32    1.15 
  -8  -1   7    1.70    1.36 
  -8  -1   6   -0.17    0.79 
  -8  -1   6    1.17    0.62 
  -8  -1   5    0.92    1.26 
  -8  -1   4    1.39    1.32 
  -8  -1   3    3.33    1.57 
  -8  -1   2    0.48    1.22 
  -8  -1   1    7.41    2.44 
  -8  -1   0   -0.05    0.55 
  -8  -1  -1    0.27    0.51 
  -8  -1  -1   -0.03    0.83 
  -8  -1  -2    4.41    1.83 
  -8  -1  -2    6.88    1.71 
  -8  -1  -3    0.22    0.51 
  -8  -1  -3    0.14    0.34 
  -8  -1  -4    3.10    1.30 
  -8  -1  -4    2.85    1.53 
  -8  -1  -5    6.81    1.79 
  -8  -2   7    4.23    2.62 
  -8  -2   6    1.95    1.53 
  -8  -2   5    0.94    1.35 
  -8  -2   4    4.84    2.03 
  -8  -2   3   -0.47    0.59 
  -8  -2   2    0.84    1.11 
  -8  -2   1    2.94    1.72 
  -8  -2   0    1.87    1.17 
  -8  -2  -1    0.97    0.71 
  -8  -2  -1    0.62    0.60 
  -8  -2  -2    0.41    0.60 
  -8  -2  -2    1.17    1.15 
  -8  -2  -3    0.05    0.32 
  -8  -2  -3   -0.52    0.66 
  -8  -2  -4    1.42    0.87 
  -8  -2  -4    0.54    0.76 
  -8  -3   6    3.23    2.16 
  -8  -3   5   -0.29    0.77 
  -8  -3   4    9.42    2.84 
  -8  -3   3    0.11    1.23 
  -8  -3   2    0.28    1.09 
  -8  -3   1    1.00    1.24 
  -8  -3   0   -0.92    1.33 
  -8  -3  -1   -0.18    0.38 
  -8  -3  -1    0.57    1.05 
  -8  -3  -2    4.69    1.69 
  -8  -3  -2    5.70    2.35 
  -8  -3  -3    0.47    0.48 
  -8  -3  -3    1.19    0.81 
  -8  -3  -4   -0.21    0.43 
  -8  -4   4    2.81    1.80 
  -8  -4   3    0.15    1.31 
  -8  -4   2   -0.44    1.21 
  -8  -4   1    0.67    1.27 
  -8  -4   0    2.54    1.56 
  -8  -4  -1    3.67    1.52 
  -8  -4  -1    5.56    2.21 
  -9   9   1    3.71    1.64 
  -9   8   4    6.08    1.97 
  -9   8   3    0.60    0.47 
  -9   8   2   -0.31    0.80 
   9  -8   0    0.40    0.58 
   9  -8   1    0.27    0.85 
   9  -8   2    0.81    0.93 
  -9   7   5    2.19    1.21 
  -9   7   4   -0.51    0.59 
  -9   7   3   -0.60    1.02 
  -9   7   2    0.51    0.77 
   9  -7  -1    1.82    0.80 
  -9   7   1    2.68    1.16 
   9  -7   0    2.41    0.79 
  -9   7   0    2.00    1.17 
   9  -7   1   -0.57    0.46 
   9  -7   2    0.20    0.24 
   9  -7   3    3.65    1.46 
   9  -7   4    1.23    1.21 
   9  -7   5   -0.61    0.91 
  -9   6   6   -1.15    0.69 
  -9   6   5    0.59    0.42 
  -9   6   4    2.48    1.27 
  -9   6   3    1.83    0.86 
  -9   6   2   -0.69    1.04 
  -9   6   1    4.28    1.31 
   9  -6   0    3.95    1.34 
  -9   6   0    6.00    1.75 
  -9   6  -1    0.43    0.42 
   9  -6   2    0.38    0.66 
   9  -6   3   -0.06    0.21 
   9  -6   4    1.02    0.74 
   9  -6   5    2.07    1.04 
  -9   5   7    7.37    2.08 
  -9   5   6    2.61    1.45 
  -9   5   5   -1.43    1.02 
  -9   5   4    6.35    1.74 
  -9   5   3    1.99    1.14 
  -9   5   2    3.39    1.26 
  -9   5   1    3.37    0.97 
  -9   5   1    2.58    0.94 
  -9   5   0    0.11    0.17 
  -9   5   0    0.90    0.64 
  -9   5  -1    0.25    0.30 
   9  -5   1    0.31    0.21 
   9  -5   2    3.67    1.26 
  -9   5  -2    1.47    0.66 
   9  -5   3    0.71    0.74 
  -9   5  -3   -0.42    0.39 
   9  -5   4    0.24    0.80 
   9  -5   5    2.42    1.09 
  -9   4   8   -1.44    1.44 
  -9   4   7    3.08    1.34 
  -9   4   6    0.02    0.42 
  -9   4   5   -0.04    0.51 
  -9   4   4    8.06    1.86 
  -9   4   3    3.71    1.32 
  -9   4   3    3.15    1.12 
  -9   4   2    1.14    1.14 
  -9   4   2    0.02    0.66 
  -9   4   1    0.08    0.39 
  -9   4   0    1.90    0.91 
  -9   4  -1    0.60    0.53 
  -9   4  -2    1.19    0.82 
   9  -4   2    1.09    0.65 
   9  -4   3    1.99    0.87 
  -9   4  -3    2.83    1.06 
   9  -4   4    3.30    1.13 
  -9   4  -4    1.89    0.97 
  -9   3   8    0.35    0.53 
  -9   3   7    0.44    0.32 
  -9   3   6    1.00    0.24 
  -9   3   5    7.16    1.70 
  -9   3   4    0.35    0.93 
  -9   3   4   -0.49    0.38 
  -9   3   3   -0.51    0.55 
  -9   3   2    1.21    0.99 
  -9   3   1    2.33    1.15 
  -9   3   0    0.94    0.87 
  -9   3   0    0.77    0.49 
  -9   3  -1    2.02    1.32 
  -9   3  -1   -0.58    0.63 
  -9   3  -2    3.27    1.42 
  -9   3  -2    3.77    1.21 
  -9   3  -3    0.49    0.37 
  -9   3  -3    2.08    0.89 
  -9   3  -4    6.10    1.53 
  -9   2   8    0.80    1.11 
  -9   2   7   -0.41    0.46 
  -9   2   6    5.58    1.65 
  -9   2   5    5.23    1.89 
  -9   2   4    1.09    0.71 
  -9   2   3    0.35    0.66 
  -9   2   2    0.90    0.76 
  -9   2   1    0.92    1.00 
  -9   2   0    0.96    1.05 
  -9   2   0   -0.10    0.42 
  -9   2  -1    2.76    1.70 
  -9   2  -1    2.81    1.10 
  -9   2  -2    2.11    0.97 
  -9   2  -2    1.56    1.17 
  -9   2  -3    2.23    1.10 
  -9   2  -3    4.21    1.72 
  -9   2  -4    5.88    1.52 
  -9   2  -4    3.57    1.48 
  -9   2  -5   -1.08    0.72 
  -9   2  -5    0.63    0.70 
  -9   1   5    0.07    0.79 
  -9   1   4    0.73    1.24 
  -9   1   3   -0.94    1.22 
  -9   1   2    4.71    2.06 
  -9   1   1    1.80    1.66 
  -9   1   0    0.83    0.50 
  -9   1   0    0.75    0.35 
  -9   1  -1    2.96    1.69 
  -9   1  -1    0.76    0.74 
  -9   1  -2    1.52    0.60 
  -9   1  -2    1.52    1.01 
  -9   1  -3    1.69    1.02 
  -9   1  -3    0.54    0.82 
  -9   1  -4   -0.75    0.63 
  -9   1  -4   -0.17    0.99 
  -9   1  -5   -0.60    0.86 
  -9   1  -5    2.92    1.55 
  -9   0   6    2.14    1.60 
  -9   0   5    2.28    1.44 
  -9   0   4   -0.27    0.87 
  -9   0   3    3.95    1.73 
  -9   0   2    3.55    1.87 
  -9   0   1    0.30    0.97 
  -9   0   0    3.84    1.62 
  -9   0   0    1.51    0.87 
  -9   0  -1    1.08    1.28 
  -9   0  -1    2.39    1.03 
  -9   0  -2   -0.18    0.52 
  -9   0  -2    2.05    1.24 
  -9   0  -3    0.83    0.77 
  -9   0  -3   -2.04    1.45 
  -9   0  -4    0.14    0.53 
  -9   0  -4    1.07    1.12 
  -9   0  -5   -1.31    1.49 
  -9  -1   6    1.75    2.00 
  -9  -1   5    0.22    0.90 
  -9  -1   4    0.01    0.97 
  -9  -1   3   -0.50    1.05 
  -9  -1   2    0.02    0.86 
  -9  -1   1    1.69    1.51 
  -9  -1   0   -0.16    0.98 
  -9  -1  -1   -1.57    1.20 
  -9  -1  -1    0.99    0.35 
  -9  -1  -2    1.15    1.07 
  -9  -1  -2   -1.73    1.71 
  -9  -1  -3    1.90    1.38 
  -9  -1  -4   -0.22    0.80 
  -9  -2   4    2.42    1.55 
  -9  -2   3    2.61    1.88 
  -9  -2   2    0.61    1.09 
  -9  -2   1    0.63    1.05 
  -9  -2   0   -1.04    1.10 
  -9  -2  -1    0.79    0.59 
  -9  -2  -2    3.12    1.66 
  10  -6   1    0.50    0.38 
  10  -6   2   -0.36    0.45 
 -10   4   1    1.43    0.86 
 -10   4   0   -0.33    0.47 
 -10   4  -1    1.87    1.12 
 -10   4  -2    0.51    0.83 
 -10   4  -3    0.02    0.64 
 -10   3   1    0.65    0.73 
 -10   3   0    1.95    1.07 
 -10   3  -1    2.10    1.15 
 -10   3  -2   -1.81    1.15 
 -10   3  -3    1.25    0.83 
 -10   2   4    5.20    2.23 
 -10   2   3    3.58    2.15 
 -10   2   2    0.17    0.73 
 -10   2   1   -0.42    1.12 
 -10   2   1    2.61    1.12 
 -10   2   0    1.30    1.68 
 -10   2   0    4.15    1.26 
 -10   2  -1    1.58    0.86 
 -10   2  -2    0.56    0.67 
 -10   1   5    7.94    2.88 
 -10   1   4    4.23    2.05 
 -10   1   3    2.94    1.62 
 -10   1   2    1.28    1.00 
 -10   1   1    6.17    2.40 
 -10   1   0    4.32    2.24 
 -10   1   0    6.17    1.79 
 -10   1  -1    1.71    1.33 
 -10   1  -2    0.90    0.89 
 -10   0   3    4.97    2.29 
 -10   0   2   -2.91    1.88 
 -10   0   1    0.85    1.43 
 -10   0   0    4.51    2.33 
 -10   0  -1    0.31    0.94 
   0   0   0    0.00    0.00 
;
_shelx_hkl_checksum              9332
loop_
_space_group_symop_operation_xyz
'x, y, z'
'-x, -y, -z'
loop_
_atom_site_label
_atom_site_type_symbol
_atom_site_fract_x
_atom_site_fract_y
_atom_site_fract_z
_atom_site_U_iso_or_equiv
_atom_site_adp_type
_atom_site_occupancy
_atom_site_site_symmetry_order
_atom_site_calc_flag
_atom_site_refinement_flags_posn
_atom_site_refinement_flags_adp
_atom_site_refinement_flags_occupancy
_atom_site_disorder_assembly
_atom_site_disorder_group
O1 O 0.3276(2) 0.61749(19) 0.86254(19) 0.0524(6) Uani 1 1 d . . . . .
O2 O 0.6706(3) 0.4029(2) 0.61013(19) 0.0558(6) Uani 1 1 d . . . . .
O3 O 0.3427(5) 0.8688(4) 1.0561(4) 0.0883(16) Uani 0.691(7) 1 d . . P A 1
O3' O 0.3446(13) 0.9392(8) 0.8864(9) 0.090(4) Uani 0.309(7) 1 d . . P A 2
O4 O 0.7159(3) 0.1107(2) 0.5278(3) 0.0801(8) Uani 1 1 d . . . . .
C1 C 0.2669(3) 0.4797(3) 0.8219(3) 0.0438(7) Uani 1 1 d . . . . .
C2 C 0.0871(3) 0.4149(3) 0.7939(3) 0.0537(8) Uani 1 1 d . . . . .
H2A H 0.000451 0.465340 0.800699 0.064 Uiso 1 1 calc R U . . .
C3 C 0.0371(4) 0.2752(3) 0.7558(3) 0.0614(9) Uani 1 1 d . . . . .
H3A H -0.083461 0.231297 0.736841 0.074 Uiso 1 1 calc R U . . .
C4 C 0.1644(4) 0.2015(3) 0.7459(3) 0.0654(9) Uani 1 1 d . . . . .
H4A H 0.130842 0.107090 0.721131 0.078 Uiso 1 1 calc R U . . .
C5 C 0.3444(4) 0.2679(3) 0.7731(3) 0.0546(8) Uani 1 1 d . . . . .
H5A H 0.430358 0.216978 0.765751 0.066 Uiso 1 1 calc R U . . .
C6 C 0.3989(3) 0.4077(3) 0.8108(2) 0.0423(7) Uani 1 1 d . . . . .
C7 C 0.5953(3) 0.4785(3) 0.8428(3) 0.0480(7) Uani 1 1 d . . . . .
H7A H 0.608865 0.523698 0.924949 0.058 Uiso 1 1 calc R U . . .
H7B H 0.662310 0.407115 0.845900 0.058 Uiso 1 1 calc R U . . .
C8 C 0.6795(3) 0.5854(3) 0.7565(3) 0.0435(7) Uani 1 1 d . . . . .
C9 C 0.7230(4) 0.7252(3) 0.7905(3) 0.0584(8) Uani 1 1 d . . . . .
H9A H 0.699571 0.754565 0.868323 0.070 Uiso 1 1 calc R U . . .
C10 C 0.8006(4) 0.8237(3) 0.7124(4) 0.0708(10) Uani 1 1 d . . . . .
H10A H 0.827928 0.918035 0.737106 0.085 Uiso 1 1 calc R U . . .
C11 C 0.8368(4) 0.7806(4) 0.5980(4) 0.0697(10) Uani 1 1 d . . . . .
H11A H 0.890106 0.846223 0.545262 0.084 Uiso 1 1 calc R U . . .
C12 C 0.7949(4) 0.6409(3) 0.5606(3) 0.0603(9) Uani 1 1 d . . . . .
H12A H 0.819649 0.612307 0.482956 0.072 Uiso 1 1 calc R U . . .
C13 C 0.7161(3) 0.5437(3) 0.6391(3) 0.0470(7) Uani 1 1 d . . . . .
C14 C 0.1993(4) 0.6938(3) 0.8900(3) 0.0602(9) Uani 1 1 d . . . . .
H14A H 0.125446 0.648919 0.951633 0.072 Uiso 1 1 calc R U . . .
H14B H 0.122095 0.698382 0.816357 0.072 Uiso 1 1 calc R U . . .
C15 C 0.2998(5) 0.8355(4) 0.9371(5) 0.0776(11) Uani 1 1 d . . . . .
H15 H 0.394189 0.878023 0.885807 0.093 Uiso 1 1 calc R U . A 1
C16 C 0.2150(6) 0.9325(4) 0.9905(5) 0.0964(14) Uani 1 1 d . . . . .
H16A H 0.089439 0.901124 1.004236 0.116 Uiso 1 1 calc R U . A 1
H16B H 0.254301 1.029548 0.972503 0.116 Uiso 1 1 calc R U . A 1
C17 C 0.6962(4) 0.3517(3) 0.4907(3) 0.0587(8) Uani 1 1 d . . . . .
H17A H 0.823133 0.368713 0.480341 0.070 Uiso 1 1 calc R U . . .
H17B H 0.640555 0.398340 0.427903 0.070 Uiso 1 1 calc R U . . .
C18 C 0.6127(4) 0.2004(3) 0.4794(3) 0.0631(9) Uani 1 1 d . . . . .
H18A H 0.484683 0.173856 0.491294 0.076 Uiso 1 1 calc R U . . .
C19 C 0.6738(5) 0.1078(4) 0.3982(4) 0.0819(11) Uani 1 1 d . . . . .
H19A H 0.585749 0.027557 0.359046 0.098 Uiso 1 1 calc R U . . .
H19B H 0.769571 0.147854 0.348501 0.098 Uiso 1 1 calc R U . . .
loop_
_atom_site_aniso_label
_atom_site_aniso_U_11
_atom_site_aniso_U_22
_atom_site_aniso_U_33
_atom_site_aniso_U_23
_atom_site_aniso_U_13
_atom_site_aniso_U_12
O1 0.0418(10) 0.0522(12) 0.0652(14) 0.0009(9) 0.0109(9) 0.0139(9)
O2 0.0628(12) 0.0581(13) 0.0513(14) 0.0074(9) 0.0182(9) 0.0196(10)
O3 0.102(3) 0.086(3) 0.077(3) 0.005(2) -0.008(2) 0.029(2)
O3' 0.133(8) 0.041(5) 0.091(7) 0.013(4) -0.014(6) 0.018(5)
O4 0.0831(16) 0.0718(16) 0.084(2) 0.0037(13) -0.0055(13) 0.0203(13)
C1 0.0399(14) 0.0496(16) 0.0429(16) 0.0082(12) 0.0067(11) 0.0110(12)
C2 0.0383(14) 0.0628(19) 0.060(2) 0.0087(14) 0.0048(12) 0.0111(13)
C3 0.0432(16) 0.065(2) 0.068(2) 0.0085(16) 0.0043(14) -0.0022(15)
C4 0.063(2) 0.0520(17) 0.073(2) 0.0031(16) 0.0055(16) -0.0002(16)
C5 0.0586(18) 0.0506(17) 0.059(2) 0.0101(14) 0.0140(14) 0.0173(14)
C6 0.0397(14) 0.0524(16) 0.0373(15) 0.0083(12) 0.0078(11) 0.0135(12)
C7 0.0408(14) 0.0588(17) 0.0469(18) 0.0084(13) 0.0045(12) 0.0163(13)
C8 0.0296(12) 0.0532(16) 0.0494(18) 0.0060(13) 0.0047(11) 0.0126(11)
C9 0.0441(15) 0.0606(19) 0.068(2) -0.0033(16) 0.0076(14) 0.0084(14)
C10 0.0550(18) 0.0549(19) 0.099(3) 0.0063(19) 0.0105(18) 0.0045(15)
C11 0.0538(18) 0.072(2) 0.085(3) 0.0293(19) 0.0174(17) 0.0103(16)
C12 0.0498(16) 0.076(2) 0.061(2) 0.0209(16) 0.0170(14) 0.0214(16)
C13 0.0365(13) 0.0557(17) 0.0531(18) 0.0164(14) 0.0076(12) 0.0163(12)
C14 0.0492(16) 0.067(2) 0.072(2) 0.0076(16) 0.0123(14) 0.0255(15)
C15 0.068(2) 0.066(3) 0.100(4) -0.015(2) 0.011(2) 0.0210(18)
C16 0.104(3) 0.077(3) 0.118(4) -0.008(2) 0.009(3) 0.045(2)
C17 0.0580(17) 0.082(2) 0.0419(19) 0.0018(15) 0.0122(13) 0.0260(16)
C18 0.0525(17) 0.075(2) 0.063(2) -0.0031(17) 0.0020(14) 0.0201(16)
C19 0.083(2) 0.082(3) 0.077(3) -0.013(2) 0.013(2) 0.014(2)
loop_
_atom_type_symbol
_atom_type_description
_atom_type_scat_dispersion_real
_atom_type_scat_dispersion_imag
_atom_type_scat_source
C C 0.0033 0.0016 'International Tables Vol C Tables 4.2.6.8 and 6.1.1.4'
H H 0.0000 0.0000 'International Tables Vol C Tables 4.2.6.8 and 6.1.1.4'
O O 0.0106 0.0060 'International Tables Vol C Tables 4.2.6.8 and 6.1.1.4'
loop_
_geom_angle_atom_site_label_1
_geom_angle_atom_site_label_2
_geom_angle_atom_site_label_3
_geom_angle
_geom_angle_site_symmetry_1
_geom_angle_site_symmetry_3
_geom_angle_publ_flag
C1 O1 C14 118.4(2) . . ?
C13 O2 C17 119.3(2) . . ?
C15 O3 C16 61.2(3) . . ?
C15 O3' C16 60.1(5) . . ?
C19 O4 C18 60.6(2) . . ?
O1 C1 C2 123.3(2) . . ?
O1 C1 C6 115.3(2) . . ?
C2 C1 C6 121.4(3) . . ?
C1 C2 C3 119.7(3) . . ?
C4 C3 C2 120.1(3) . . ?
C3 C4 C5 119.7(3) . . ?
C6 C5 C4 121.7(3) . . ?
C5 C6 C1 117.5(2) . . ?
C5 C6 C7 121.2(2) . . ?
C1 C6 C7 121.2(2) . . ?
C8 C7 C6 116.3(2) . . ?
C9 C8 C13 118.1(3) . . ?
C9 C8 C7 121.4(3) . . ?
C13 C8 C7 120.5(2) . . ?
C8 C9 C10 121.8(3) . . ?
C9 C10 C11 119.2(3) . . ?
C12 C11 C10 120.5(3) . . ?
C11 C12 C13 119.7(3) . . ?
O2 C13 C12 123.7(3) . . ?
O2 C13 C8 115.6(2) . . ?
C12 C13 C8 120.7(3) . . ?
O1 C14 C15 107.3(2) . . ?
O3' C15 C16 73.6(6) . . ?
O3 C15 C16 63.9(3) . . ?
O3' C15 C14 131.3(6) . . ?
O3 C15 C14 121.9(4) . . ?
C16 C15 C14 122.2(3) . . ?
C15 C16 O3 54.9(3) . . ?
C15 C16 O3' 46.3(3) . . ?
O2 C17 C18 107.5(3) . . ?
O4 C18 C19 59.8(2) . . ?
O4 C18 C17 117.4(3) . . ?
C19 C18 C17 121.4(3) . . ?
O4 C19 C18 59.6(2) . . ?
loop_
_geom_bond_atom_site_label_1
_geom_bond_atom_site_label_2
_geom_bond_distance
_geom_bond_site_symmetry_2
_geom_bond_publ_flag
O1 C1 1.373(3) . ?
O1 C14 1.423(3) . ?
O2 C13 1.370(3) . ?
O2 C17 1.422(3) . ?
O3 C15 1.320(5) . ?
O3 C16 1.450(6) . ?
O3' C15 1.178(8) . ?
O3' C16 1.565(11) . ?
O4 C19 1.422(5) . ?
O4 C18 1.419(4) . ?
C1 C2 1.386(4) . ?
C1 C6 1.385(4) . ?
C2 C3 1.380(4) . ?
C3 C4 1.365(4) . ?
C4 C5 1.389(4) . ?
C5 C6 1.381(4) . ?
C6 C7 1.515(3) . ?
C7 C8 1.512(4) . ?
C8 C9 1.371(4) . ?
C8 C13 1.399(4) . ?
C9 C10 1.383(5) . ?
C10 C11 1.372(5) . ?
C11 C12 1.379(5) . ?
C12 C13 1.380(4) . ?
C14 C15 1.479(4) . ?
C15 C16 1.414(5) . ?
C17 C18 1.479(4) . ?
C18 C19 1.432(5) . ?
