#------------------------------------------------------------------------------
#$Date: 2021-09-06 12:30:17 +0300 (Mon, 06 Sep 2021) $
#$Revision: 268570 $
#$URL: file:///home/coder/svn-repositories/cod/cif/7/12/86/7128658.cif $
#------------------------------------------------------------------------------
#
# This file is available in the Crystallography Open Database (COD),
# http://www.crystallography.net/
#
# All data on this site have been placed in the public domain by the
# contributors.
#
data_7128658
loop_
_publ_author_name
'Hu, Yimin'
'Yan, Zhengyang'
'Shi, Wangyu'
'Liao, Jianning'
'Liu, Min'
'Pan, Ting'
'Wang, Wei'
'Wu, Yongjun'
'Hao, Xianghong'
'Guo, Hongchao'
_publ_section_title
;
 Copper/Lewis base cooperatively catalyzed asymmetric allylic alkylation
 of Morita-Baylis-Hillman carbonates with azomethine ylides.
;
_journal_issue                   65
_journal_name_full
'Chemical communications (Cambridge, England)'
_journal_page_first              8059
_journal_page_last               8062
_journal_paper_doi               10.1039/d1cc02861h
_journal_volume                  57
_journal_year                    2021
_chemical_absolute_configuration rm
_chemical_formula_moiety         'C23 H25 N O4'
_chemical_formula_sum            'C23 H25 N O4'
_chemical_formula_weight         379.44
_space_group_crystal_system      triclinic
_space_group_IT_number           1
_space_group_name_Hall           'P 1'
_space_group_name_H-M_alt        'P 1'
_atom_sites_solution_hydrogens   geom
_audit_creation_date             2021-07-08
_audit_creation_method
;
Olex2 1.3
(compiled 2020.11.12 svn.r5f609507 for OlexSys, GUI svn.r6272)
;
_audit_update_record
;
2021-07-08 deposited with the CCDC.	2021-07-15 downloaded from the CCDC.
;
_cell_angle_alpha                82.4130(10)
_cell_angle_beta                 86.4550(10)
_cell_angle_gamma                89.4660(10)
_cell_formula_units_Z            2
_cell_length_a                   5.8434(2)
_cell_length_b                   9.9102(3)
_cell_length_c                   17.9362(5)
_cell_measurement_reflns_used    8478
_cell_measurement_temperature    170(2)
_cell_measurement_theta_max      59.20
_cell_measurement_theta_min      2.49
_cell_volume                     1027.61(6)
_computing_cell_refinement       'SAINT V8.38A (Bruker, 2018)'
_computing_data_reduction        'SAINT V8.38A (Bruker, 2018)'
_computing_molecular_graphics    'Olex2 1.3 (Dolomanov et al., 2009)'
_computing_publication_material  'Olex2 1.3 (Dolomanov et al., 2009)'
_computing_structure_refinement  'SHELXL 2018/3 (Sheldrick, 2015)'
_computing_structure_solution    'SHELXT 2014/5 (Sheldrick, 2014)'
_diffrn_ambient_temperature      170.0
_diffrn_measured_fraction_theta_full 0.976
_diffrn_measured_fraction_theta_max 0.976
_diffrn_measurement_device_type  'Bruker APEX-II CCD'
_diffrn_measurement_method       '\f and \w scans'
_diffrn_radiation_type           CuK\a
_diffrn_radiation_wavelength     1.54178
_diffrn_reflns_av_R_equivalents  0.0297
_diffrn_reflns_av_unetI/netI     0.0413
_diffrn_reflns_Laue_measured_fraction_full 0.976
_diffrn_reflns_Laue_measured_fraction_max 0.976
_diffrn_reflns_limit_h_max       6
_diffrn_reflns_limit_h_min       -6
_diffrn_reflns_limit_k_max       11
_diffrn_reflns_limit_k_min       -11
_diffrn_reflns_limit_l_max       19
_diffrn_reflns_limit_l_min       -19
_diffrn_reflns_number            9670
_diffrn_reflns_point_group_measured_fraction_full 0.925
_diffrn_reflns_point_group_measured_fraction_max 0.925
_diffrn_reflns_theta_full        59.192
_diffrn_reflns_theta_max         59.192
_diffrn_reflns_theta_min         5.427
_diffrn_source_current           0.95
_diffrn_source_power             0.0475
_diffrn_source_voltage           50.0
_diffrn_standards_number         0
_exptl_absorpt_coefficient_mu    0.676
_exptl_absorpt_correction_T_max  0.7516
_exptl_absorpt_correction_T_min  0.6653
_exptl_absorpt_correction_type   multi-scan
_exptl_absorpt_process_details
;
SADABS-2016/2 (Bruker,2016/2) was used for absorption correction.
wR2(int) was 0.0939 before and 0.0474 after correction.
The Ratio of minimum to maximum transmission is 0.8852.
The \l/2 correction factor is Not present.
;
_exptl_crystal_colour            colourless
_exptl_crystal_colour_primary    colourless
_exptl_crystal_density_diffrn    1.226
_exptl_crystal_description       block
_exptl_crystal_F_000             404
_refine_diff_density_max         0.110
_refine_diff_density_min         -0.114
_refine_diff_density_rms         0.024
_refine_ls_abs_structure_details
;
 Flack x determined using 2438 quotients [(I+)-(I-)]/[(I+)+(I-)]
 (Parsons, Flack and Wagner, Acta Cryst. B69 (2013) 249-259).
;
_refine_ls_abs_structure_Flack   0.11(8)
_refine_ls_extinction_method     none
_refine_ls_goodness_of_fit_ref   1.049
_refine_ls_hydrogen_treatment    constr
_refine_ls_matrix_type           full
_refine_ls_number_parameters     511
_refine_ls_number_reflns         5509
_refine_ls_number_restraints     405
_refine_ls_restrained_S_all      1.012
_refine_ls_R_factor_all          0.0281
_refine_ls_R_factor_gt           0.0271
_refine_ls_shift/su_max          0.000
_refine_ls_shift/su_mean         0.000
_refine_ls_structure_factor_coef Fsqd
_refine_ls_weighting_details
'w=1/[\s^2^(Fo^2^)+(0.0255P)^2^+0.1081P] where P=(Fo^2^+2Fc^2^)/3'
_refine_ls_weighting_scheme      calc
_refine_ls_wR_factor_gt          0.0667
_refine_ls_wR_factor_ref         0.0674
_reflns_Friedel_coverage         0.894
_reflns_Friedel_fraction_full    0.873
_reflns_Friedel_fraction_max     0.873
_reflns_number_gt                5357
_reflns_number_total             5509
_reflns_threshold_expression     'I > 2\s(I)'
_cod_data_source_file            d1cc02861h2.cif
_cod_data_source_block           20210708_0m_a
_cod_depositor_comments          'Adding full bibliography for 7128658.cif.'
_cod_database_code               7128658
_shelx_shelxl_version_number     2018/3
_shelx_space_group_comment
;
The symmetry employed for this shelxl refinement is uniquely defined
by the following loop, which should always be used as a source of
symmetry information in preference to the above space-group names.
They are only intended as comments.
;
_olex2_refinement_description
;
1. Rigid body (RIGU) restrains
 All non-hydrogen atoms
 with sigma for 1-2 distances of 0.004 and sigma for 1-3 distances of 0.004
2.a Ternary CH refined with riding coordinates:
 C4(H4), C5(H5), C32(H32), C36(H36)
2.b Secondary CH2 refined with riding coordinates:
 C2(H2A,H2B), C34(H34A,H34B)
2.c Aromatic/amide H refined with riding coordinates:
 C6(H6), C8(H8), C9(H9), C11(H11), C10(H10), C16(H16), C15(H15), C19(H19),
 C18(H18), C17(H17), C26(H26), C27(H27), C28(H28), C29(H29), C31(H31), C42(H42),
  C43(H43), C44(H44), C45(H45), C46(H46)
2.d X=CH2 refined with riding coordinates:
 C21(H21A,H21B), C38(H38A,H38B)
2.e Idealised Me refined as rotating group:
 C1(H1A,H1B,H1C), C13(H13A,H13B,H13C), C23(H23A,H23B,H23C), C24(H24A,H24B,
 H24C), C35(H35A,H35B,H35C), C40(H40A,H40B,H40C)
;
_shelx_res_file
;
TITL 20210708_0m_a.res in P1
    20210708_0m_a.res
    created by SHELXL-2018/3 at 17:15:20 on 08-Jul-2021
REM Old TITL 20210708_0m in P1
REM SHELXT solution in P1
REM R1 0.092, Rweak 0.032, Alpha 0.000, Orientation as input
REM Flack x = 0.096 ( 0.074 ) from Parsons' quotients
REM Formula found by SHELXT: C46 N2 O8
CELL 1.54178 5.8434 9.9102 17.9362 82.413 86.455 89.466
ZERR 2 0.0002 0.0003 0.0005 0.001 0.001 0.001
LATT -1
SFAC C H N O
UNIT 46 50 2 8
RIGU

L.S. 10
PLAN  7
TEMP -103.15
CONF
BOND $H
LIST 6
fmap 2
acta
MORE -1
OMIT 0 0 -2
OMIT 1 0 -1
OMIT 0 0 -4
REM <olex2.extras>
REM <HklSrc "%20210708_0m_a.hkl">
REM </olex2.extras>

WGHT    0.025500    0.108100
FVAR       2.21151
O1    4   -0.210644    0.754331    0.894684    11.00000    0.03997    0.03162 =
         0.02899    0.00003    0.00622    0.00114
N1    3    0.179991    0.925309    0.799385    11.00000    0.03686    0.02761 =
         0.02484   -0.00646   -0.00108    0.00148
C1    1   -0.076205    0.648831    1.013505    11.00000    0.05993    0.04476 =
         0.03435    0.00095   -0.00071    0.00007
AFIX 137
H1A   2    0.079007    0.637742    0.991138    11.00000   -1.50000
H1B   2   -0.108088    0.575548    1.055073    11.00000   -1.50000
H1C   2   -0.088201    0.736936    1.032660    11.00000   -1.50000
AFIX   0
O002  4    0.418314    0.246041    0.090314    11.00000    0.04181    0.02832 =
         0.03130    0.00244   -0.00946   -0.00475
O2    4    0.047395    0.628602    0.835606    11.00000    0.06230    0.03204 =
         0.03810    0.00163    0.00717    0.01425
C2    1   -0.245256    0.643166    0.955265    11.00000    0.04776    0.03174 =
         0.03449    0.00089    0.00768   -0.00687
AFIX  23
H2A   2   -0.229238    0.555480    0.934625    11.00000   -1.20000
H2B   2   -0.402519    0.648074    0.978684    11.00000   -1.20000
AFIX   0
O3    4   -0.285542    0.572156    0.599102    11.00000    0.03565    0.04950 =
         0.05441   -0.01648   -0.00768   -0.00989
C3    1   -0.057423    0.733382    0.838662    11.00000    0.03647    0.02780 =
         0.02762   -0.00436    0.00043    0.00156
O004  4    0.251108    0.424917    0.383932    11.00000    0.03272    0.04570 =
         0.04567   -0.01427    0.00092    0.01042
O4    4    0.076302    0.640227    0.602362    11.00000    0.03193    0.03581 =
         0.04043   -0.01825    0.00255   -0.00437
C4    1   -0.030647    0.859912    0.781347    11.00000    0.03116    0.02538 =
         0.02779   -0.00256    0.00216    0.00392
AFIX  13
H4    2   -0.165158    0.921897    0.786345    11.00000   -1.20000
AFIX   0
O005  4    0.618581    0.362264    0.377200    11.00000    0.02905    0.03506 =
         0.04151   -0.01817   -0.00605    0.00492
C5    1   -0.004129    0.820507    0.701037    11.00000    0.02474    0.02468 =
         0.02781   -0.00473   -0.00274    0.00261
AFIX  13
H5    2    0.142444    0.768307    0.697122    11.00000   -1.20000
AFIX   0
O006  4    0.675550    0.367039    0.141691    11.00000    0.05037    0.02993 =
         0.04487    0.00423   -0.00954   -0.01413
C6    1    0.183247    1.054796    0.791219    11.00000    0.03834    0.02891 =
         0.02535   -0.00479   -0.00089    0.00232
AFIX  43
H6    2    0.054921    1.103557    0.771443    11.00000   -1.20000
AFIX   0
C7    1    0.379307    1.131191    0.811430    11.00000    0.03776    0.03144 =
         0.03196   -0.01082    0.00121    0.00402
N008  3    0.800552    0.074017    0.181868    11.00000    0.03384    0.02752 =
         0.02494   -0.00637   -0.00145   -0.00013
C8    1    0.514179    1.071653    0.868869    11.00000    0.04532    0.03616 =
         0.03821   -0.01089   -0.00573    0.00615
AFIX  43
H8    2    0.481353    0.981768    0.892419    11.00000   -1.20000
AFIX   0
C9    1    0.694181    1.142178    0.891600    11.00000    0.04744    0.05438 =
         0.04765   -0.02009   -0.01401    0.01156
AFIX  43
H9    2    0.784767    1.101079    0.930624    11.00000   -1.20000
AFIX   0
C11   1    0.611431    1.331433    0.800079    11.00000    0.04741    0.03867 =
         0.06088   -0.01168   -0.00443   -0.00649
AFIX  43
H11   2    0.647983    1.420695    0.776317    11.00000   -1.20000
AFIX   0
C10   1    0.741895    1.272372    0.857468    11.00000    0.04278    0.05093 =
         0.06597   -0.02683   -0.01105   -0.00104
AFIX  43
H10   2    0.864557    1.321717    0.873343    11.00000   -1.20000
AFIX   0
C12   1    0.428720    1.263433    0.776455    11.00000    0.04625    0.03512 =
         0.04184   -0.00724   -0.00453   -0.00390
C13   1    0.291645    1.331169    0.713464    11.00000    0.07101    0.04511 =
         0.06384    0.01104   -0.02208   -0.01564
AFIX 137
H13A  2    0.374405    1.411402    0.687849    11.00000   -1.50000
H13B  2    0.142160    1.359108    0.734191    11.00000   -1.50000
H13C  2    0.269217    1.267052    0.677381    11.00000   -1.50000
AFIX   0
C16   1   -0.138617    1.155306    0.581746    11.00000    0.04592    0.02992 =
         0.04230   -0.00196   -0.00893    0.00616
AFIX  43
H16   2   -0.258883    1.220563    0.578016    11.00000   -1.20000
AFIX   0
C15   1   -0.159772    1.040877    0.634759    11.00000    0.03307    0.03020 =
         0.03412   -0.00168   -0.00057    0.00242
AFIX  43
H15   2   -0.296124    1.026946    0.666461    11.00000   -1.20000
AFIX   0
C14   1    0.016602    0.946033    0.642100    11.00000    0.02877    0.02759 =
         0.02608   -0.00665   -0.00348   -0.00319
C19   1    0.213456    0.967946    0.595026    11.00000    0.03203    0.02953 =
         0.03178   -0.00525   -0.00078   -0.00144
AFIX  43
H19   2    0.336405    0.904623    0.599909    11.00000   -1.20000
AFIX   0
C18   1    0.232745    1.082012    0.540588    11.00000    0.04119    0.03757 =
         0.02959   -0.00472    0.00560   -0.00825
AFIX  43
H18   2    0.367300    1.095371    0.507976    11.00000   -1.20000
AFIX   0
C17   1    0.056847    1.175324    0.534069    11.00000    0.05319    0.02854 =
         0.03140    0.00001   -0.00505   -0.00821
AFIX  43
H17   2    0.069595    1.253161    0.496982    11.00000   -1.20000
AFIX   0
C20   1   -0.196010    0.728341    0.684573    11.00000    0.02674    0.02339 =
         0.03313    0.00085   -0.00336    0.00302
C21   1   -0.404360    0.720797    0.718166    11.00000    0.02835    0.03371 =
         0.04601   -0.00551   -0.00074    0.00088
AFIX  93
H21A  2   -0.514002    0.660340    0.703924    11.00000   -1.20000
H21B  2   -0.444343    0.775837    0.756532    11.00000   -1.20000
AFIX   0
C22   1   -0.145298    0.638679    0.624694    11.00000    0.02779    0.02606 =
         0.03208    0.00007   -0.00492   -0.00339
C23   1    0.142670    0.555329    0.545159    11.00000    0.04535    0.04420 =
         0.04405   -0.02542    0.00716   -0.00622
AFIX 137
H23A  2    0.077917    0.592454    0.497607    11.00000   -1.50000
H23B  2    0.084895    0.462785    0.560894    11.00000   -1.50000
H23C  2    0.310256    0.553110    0.538138    11.00000   -1.50000
AFIX   0
C24   1    0.893135   -0.327021    0.276038    11.00000    0.05515    0.04293 =
         0.05069    0.00957    0.00952    0.01162
AFIX 137
H24A  2    0.752207   -0.355873    0.255802    11.00000   -1.50000
H24B  2    0.855533   -0.260424    0.310751    11.00000   -1.50000
H24C  2    0.967647   -0.406267    0.303056    11.00000   -1.50000
AFIX   0
C25   1    1.053184   -0.263164    0.212192    11.00000    0.04231    0.03109 =
         0.03337   -0.00403   -0.00426    0.00214
C26   1    1.248174   -0.333414    0.190343    11.00000    0.04477    0.03582 =
         0.04322   -0.00776   -0.00320    0.00748
AFIX  43
H26   2    1.277626   -0.421535    0.215811    11.00000   -1.20000
AFIX   0
C27   1    1.399250   -0.278180    0.132713    11.00000    0.04060    0.04452 =
         0.04435   -0.01797   -0.00027    0.00692
AFIX  43
H27   2    1.530192   -0.328611    0.118513    11.00000   -1.20000
AFIX   0
C28   1    1.361074   -0.149855    0.095534    11.00000    0.03899    0.04654 =
         0.04050   -0.01205    0.00420   -0.00533
AFIX  43
H28   2    1.465195   -0.111545    0.055754    11.00000   -1.20000
AFIX   0
C29   1    1.169580   -0.077317    0.116705    11.00000    0.04484    0.03053 =
         0.03441   -0.00854   -0.00250   -0.00464
AFIX  43
H29   2    1.143959    0.011557    0.091565    11.00000   -1.20000
AFIX   0
C30   1    1.014414   -0.132638    0.174172    11.00000    0.03560    0.02866 =
         0.02931   -0.01086   -0.00490   -0.00159
C31   1    0.806786   -0.055325    0.193172    11.00000    0.03454    0.02777 =
         0.02747   -0.00461   -0.00369   -0.00057
AFIX  43
H31   2    0.673662   -0.103635    0.214504    11.00000   -1.20000
AFIX   0
C32   1    0.580603    0.138478    0.199520    11.00000    0.02849    0.02250 =
         0.02675   -0.00163   -0.00365   -0.00335
AFIX  13
H32   2    0.451084    0.075225    0.195289    11.00000   -1.20000
AFIX   0
C33   1    0.566908    0.264495    0.141535    11.00000    0.03039    0.02923 =
         0.02840   -0.00489   -0.00166   -0.00080
C34   1    0.386755    0.360124    0.032031    11.00000    0.05410    0.03498 =
         0.03362    0.00614   -0.00951    0.00160
AFIX  23
H34A  2    0.529223    0.376963   -0.000607    11.00000   -1.20000
H34B  2    0.348082    0.443532    0.055062    11.00000   -1.20000
AFIX   0
C35   1    0.195904    0.324019   -0.013060    11.00000    0.06135    0.04452 =
         0.04117   -0.00467   -0.01866    0.00994
AFIX 137
H35A  2    0.174286    0.397399   -0.054329    11.00000   -1.50000
H35B  2    0.054425    0.311551    0.019363    11.00000   -1.50000
H35C  2    0.233506    0.239367   -0.033864    11.00000   -1.50000
AFIX   0
C36   1    0.576469    0.179208    0.279737    11.00000    0.02159    0.02524 =
         0.03045   -0.00458   -0.00171   -0.00262
AFIX  13
H36   2    0.720582    0.231023    0.283257    11.00000   -1.20000
AFIX   0
C37   1    0.376571    0.272139    0.296757    11.00000    0.02555    0.02190 =
         0.03008    0.00137    0.00090   -0.00339
C38   1    0.179321    0.279729    0.263593    11.00000    0.02686    0.03282 =
         0.04661   -0.00747   -0.00357   -0.00218
AFIX  93
H38A  2    0.062379    0.339740    0.278365    11.00000   -1.20000
H38B  2    0.154989    0.225153    0.225067    11.00000   -1.20000
AFIX   0
C39   1    0.402810    0.360532    0.356626    11.00000    0.02638    0.02019 =
         0.03266    0.00281   -0.00069    0.00107
C40   1    0.660649    0.445296    0.435107    11.00000    0.04226    0.04222 =
         0.04383   -0.02143   -0.00888    0.00633
AFIX 137
H40A  2    0.825322    0.446292    0.442570    11.00000   -1.50000
H40B  2    0.577557    0.407668    0.482296    11.00000   -1.50000
H40C  2    0.607671    0.538385    0.419828    11.00000   -1.50000
AFIX   0
C41   1    0.578353    0.054493    0.339162    11.00000    0.02769    0.02463 =
         0.02694   -0.00469   -0.00003    0.00272
C42   1    0.400198   -0.039683    0.347479    11.00000    0.03067    0.03366 =
         0.02903   -0.00209   -0.00270   -0.00199
AFIX  43
H42   2    0.275642   -0.025762    0.315691    11.00000   -1.20000
AFIX   0
C43   1    0.401945   -0.152849    0.401180    11.00000    0.04140    0.03071 =
         0.03738    0.00054    0.00169   -0.00653
AFIX  43
H43   2    0.281074   -0.217349    0.405245    11.00000   -1.20000
AFIX   0
C44   1    0.579167   -0.172722    0.449142    11.00000    0.05186    0.02974 =
         0.02778    0.00053    0.00033    0.00738
AFIX  43
H44   2    0.578990   -0.249712    0.486814    11.00000   -1.20000
AFIX   0
C45   1    0.756236   -0.079851    0.441849    11.00000    0.04165    0.03819 =
         0.03083   -0.00428   -0.00948    0.00819
AFIX  43
H45   2    0.878622   -0.093251    0.474544    11.00000   -1.20000
AFIX   0
C46   1    0.756700    0.032842    0.387142    11.00000    0.03067    0.03138 =
         0.02955   -0.00740   -0.00343    0.00054
AFIX  43
H46   2    0.879984    0.095818    0.382403    11.00000   -1.20000
AFIX   0
HKLF 4




REM  20210708_0m_a.res in P1
REM wR2 = 0.0674, GooF = S = 1.049, Restrained GooF = 1.012 for all data
REM R1 = 0.0271 for 5357 Fo > 4sig(Fo) and 0.0281 for all 5509 data
REM 511 parameters refined using 405 restraints

END

WGHT      0.0255      0.1081

REM Highest difference peak  0.110,  deepest hole -0.114,  1-sigma level  0.024
Q1    1   0.6969  0.3859  0.0798  11.00000  0.05    0.11
Q2    1  -0.1433  0.6237  0.6844  11.00000  0.05    0.10
Q3    1   0.2686  0.4097  0.4611  11.00000  0.05    0.10
Q4    1   0.1172  0.5153  0.8356  11.00000  0.05    0.09
Q5    1   0.7187 -0.1520  0.4214  11.00000  0.05    0.09
Q6    1   0.8590 -0.4229  0.2593  11.00000  0.05    0.09
Q7    1   0.2811  0.4717  0.5639  11.00000  0.05    0.08
;
_shelx_res_checksum              97369
_shelx_hkl_file
;
  -1   0   0  826.52   34.30
  -1   0   0  720.53   31.80
   1   0   0  957.20   32.40
  -2   0   0 1757.22   70.09
   2   0   0 1886.61   74.19
   2   0   0 1817.52   70.09
  -3   0   0  611.44   34.80
  -3   0   0  538.75   26.90
   3   0   0  530.75   26.30
   3   0   0  564.74   24.70
   3   0   0  614.24   27.10
   3   0   0  614.24   28.80
  -4   0   0  182.88   21.50
  -4   0   0  193.88   11.40
  -4   0   0  169.08   13.50
   4   0   0  177.38   11.10
   4   0   0  185.38   14.30
  -5   0   0 2531.75  125.09
  -5   0   0 2769.42  101.49
  -5   0   0 2531.85  105.89
   5   0   0 2665.23  101.49
  -6   0   0  499.95   23.50
  -6   0   0  478.05   27.50
   6   0   0  473.05   22.60
   6  -1   0  324.57   17.80
  -6   1   0  369.96   22.10
   5  -1   0 1352.26   56.99
  -5   1   0 1325.47   78.49
  -5   1   0 1413.26   56.49
  -5   1   0 1465.85   62.29
   4  -1   0  792.72   35.00
   4  -1   0  825.12   39.80
  -4   1   0  771.32   38.00
  -4   1   0  835.92   34.50
  -4   1   0  825.72   50.49
   3  -1   0 2155.98   92.99
   3  -1   0 2310.17   85.99
   3  -1   0 2378.66   90.79
  -3   1   0 2202.38   88.29
  -3   1   0 2308.17   98.29
  -3   1   0 2232.68   85.09
   2  -1   0 1339.97   54.59
  -2   1   0 1323.67   57.59
  -2   1   0 1298.97   53.09
  -2  -1   0 3728.93  138.09
  -3  -1   0  733.83   39.40
  -3  -1   0  671.93   28.90
   3   1   0  737.93   31.80
   3   1   0  711.33   31.60
   3   1   0  709.33   29.20
  -4  -1   0 1003.30   56.99
  -4  -1   0 1001.90   41.50
  -4  -1   0  969.50   45.40
   4   1   0 1046.20   45.40
   4   1   0 1036.90   41.70
  -5  -1   0  772.62   33.70
  -5  -1   0  720.13   52.19
  -5  -1   0  707.43   37.20
   5   1   0  779.22   33.10
  -6  -1   0    0.90    3.60
   6   1   0    1.90    3.30
   6   1   0   -0.20    2.00
   6  -2   0  590.54   27.20
  -6   2   0  564.34   30.40
   5  -2   0  889.61   37.70
   5  -2   0  832.42   43.40
  -5   2   0  858.11   35.90
  -5   2   0  866.61   41.70
  -5   2   0  688.53   53.79
   4  -2   0 2154.38   80.49
  -4   2   0 2017.40   78.49
  -4   2   0 2078.69   83.79
  -4   2   0 1918.21   97.59
   3  -2   0 1019.60   45.70
   3  -2   0 1006.80   41.10
   3  -2   0  977.10   46.50
   3  -2   0 1033.50   40.70
  -3   2   0  973.30   52.39
  -3   2   0  971.30   43.00
  -3   2   0 1032.30   40.00
   2  -2   0 3585.24  134.59
   2  -2   0 3710.13  137.49
  -2   2   0 3689.03  136.29
  -2   2   0 3613.54  143.69
  -1   2   0 3776.92  139.69
   0   2   0 6098.29  233.08
  -2  -2   0 3149.68  133.79
  -2  -2   0 4004.70  134.19
   2   2   0 3733.73  134.09
  -3  -2   0 2953.20  119.89
  -3  -2   0 2788.62  106.99
   3   2   0 2820.22  109.39
   3   2   0 3001.20  107.19
   3   2   0 2859.81  110.09
  -4  -2   0  158.98   19.50
  -4  -2   0  161.18   10.30
   4   2   0  160.18    9.60
   4   2   0  147.39   12.00
  -5  -2   0  498.55   42.70
  -5  -2   0  597.34   26.80
   5   2   0  555.24   24.90
  -6  -2   0  202.18   12.90
   6   2   0  195.78   14.20
   6  -3   0  323.87   17.60
  -6   3   0  336.87   20.50
   5  -3   0  287.07   23.20
   5  -3   0  321.97   18.30
  -5   3   0  323.47   21.40
   4  -3   0  194.28   12.40
   4  -3   0  158.88   11.50
   4  -3   0  174.08   20.80
  -4   3   0  176.38   11.40
  -4   3   0  188.88   14.30
  -4   3   0  180.78   22.80
   3  -3   0 3588.14  129.29
   3  -3   0 3364.76  130.09
   3  -3   0 3645.24  135.49
   3  -3   0 3266.87  137.79
  -3   3   0 3322.07  131.39
  -3   3   0 3505.95  145.09
  -3   3   0 3319.17  130.99
   2  -3   0 1739.43   69.29
  -2   3   0 1713.23   76.19
   1  -3   0 2782.52  100.49
  -1   3   0 2547.84  100.99
  -1  -3   0 4285.77  165.68
   1   3   0 4402.66  167.58
  -2  -3   0 1148.29   50.29
  -2  -3   0 1086.29   42.00
  -2  -3   0 1086.69   44.80
   2   3   0 1089.29   43.20
   2   3   0 1030.20   43.50
  -3  -3   0  400.46   17.20
  -3  -3   0  417.86   27.60
   3   3   0  366.96   16.30
   3   3   0  378.06   19.60
   3   3   0  370.46   19.40
   3   3   0  352.66   18.60
  -4  -3   0  659.83   29.30
  -4  -3   0  653.03   44.10
   4   3   0  746.53   33.10
   4   3   0  663.13   32.60
   4   3   0  664.03   28.00
  -5  -3   0  207.58   35.30
  -5  -3   0  191.08   13.10
   5   3   0  216.78   15.50
  -6  -3   0   20.20    4.90
   6   3   0   16.70    5.30
   6  -4   0  211.78   14.20
  -6   4   0  217.48   15.80
   5  -4   0  227.98   14.90
  -5   4   0  238.78   17.90
   4  -4   0   58.29    8.10
   4  -4   0   70.89    7.20
  -4   4   0   70.59   10.50
   3  -4   0  739.13   38.70
   3  -4   0  752.12   33.30
   3  -4   0  778.72   33.20
   3  -4   0  751.62   43.70
  -3   4   0  772.82   35.20
  -3   4   0  742.53   47.00
   2  -4   0  368.56   25.60
   2  -4   0  394.26   21.60
   2  -4   0  386.66   18.60
   2  -4   0  385.66   18.40
  -2   4   0  397.56   19.40
  -2   4   0  408.86   19.60
   1  -4   0 1182.68   53.29
   1  -4   0 1366.06   54.59
   1  -4   0 1455.05   61.89
  -1   4   0 1445.96   53.09
   0  -4   0 4040.30  153.98
   0   4   0 3902.51  149.88
  -2  -4   0  692.43   27.20
  -2  -4   0  731.63   33.80
   2   4   0  743.83   31.40
   2   4   0  712.33   30.60
  -3  -4   0 1623.04   75.29
   3   4   0 1555.14   63.89
   3   4   0 1561.34   63.69
  -4  -4   0  101.39   27.70
  -4  -4   0  144.29   11.10
   4   4   0  163.58   12.30
  -5  -4   0  518.95   25.40
   5   4   0  562.74   29.20
  -6  -4   0    1.20    3.20
   6   4   0    0.50    3.30
   5  -5   0  340.57   19.10
  -5   5   0  345.87   21.60
   4  -5   0  101.09    9.30
   4  -5   0  115.19   10.00
  -4   5   0  105.99   11.10
  -4   5   0   74.89   11.10
   3  -5   0  227.98   19.40
   3  -5   0  244.08   24.30
   3  -5   0  251.27   14.80
   3  -5   0  230.88   14.60
  -3   5   0  255.77   18.60
  -3   5   0  244.78   15.90
   2  -5   0  138.09   16.50
   2  -5   0  146.19   10.00
   2  -5   0  146.49   12.40
  -2   5   0  141.79   10.20
  -2   5   0  153.18   13.50
   1  -5   0  715.53   32.70
   1  -5   0  691.13   29.60
  -1   5   0  755.02   32.20
  -1   5   0  712.03   30.20
  -1   5   0  751.62   35.30
   0  -5   0  583.64   25.00
   0  -5   0  570.34   32.70
   0   5   0  574.64   25.90
   0   5   0  536.55   28.40
  -1  -5   0  237.68   17.60
  -1  -5   0  206.18    9.50
   1   5   0  222.88   12.70
   1   5   0  182.28   13.80
  -2  -5   0 1793.52   76.59
   2   5   0 1796.82   70.69
   2   5   0 1849.81   73.99
  -3  -5   0  228.28   12.20
  -3  -5   0  255.77   23.50
   3   5   0  253.37   15.30
   3   5   0  242.58   15.40
  -4  -5   0  247.98   14.00
  -4  -5   0  239.88   27.10
   4   5   0  261.17   17.40
  -5  -5   0  140.69   10.30
   5   5   0  130.79   12.40
   5  -6   0  124.19   10.00
  -5   6   0  126.19   11.40
   4  -6   0  324.27   18.90
   4  -6   0  332.37   19.50
  -4   6   0  342.57   20.80
  -4   6   0  298.57   22.90
   3  -6   0  756.82   34.80
   3  -6   0  764.22   34.90
  -3   6   0  765.02   36.10
   2  -6   0  610.64   41.70
   2  -6   0  617.34   33.50
   2  -6   0  603.44   28.50
  -2   6   0  613.14   34.20
  -2   6   0  657.73   30.50
  -2   6   0  657.73   29.30
   1  -6   0  523.35   35.70
  -1   6   0  531.25   26.20
  -1   6   0  550.54   30.10
  -1   6   0  534.15   23.50
   0  -6   0  423.96   20.80
   0  -6   0  410.16   18.50
   0  -6   0  495.55   31.80
   0   6   0  431.36   25.40
   0   6   0  427.56   22.00
   1   6   0  793.22   35.60
  -2  -6   0  550.94   33.90
   2   6   0  572.54   32.30
   2   6   0  589.54   26.80
   2   6   0  600.14   28.70
  -3  -6   0  841.12   33.90
  -3  -6   0  823.92   58.79
   3   6   0  812.32   37.00
   3   6   0  839.92   39.10
  -4  -6   0   91.89    8.20
  -4  -6   0  146.69   30.50
   4   6   0   87.79   10.50
  -5  -6   0   73.19    7.30
   5   6   0   55.79    8.80
   4  -7   0  246.78   15.80
   4  -7   0  249.58   16.20
  -4   7   0  253.67   21.20
  -4   7   0  260.47   16.70
   3  -7   0  324.67   18.80
  -3   7   0  310.87   23.60
  -3   7   0  304.37   18.60
   2  -7   0  343.77   19.20
  -2   7   0  338.37   24.90
  -2   7   0  361.26   21.00
  -2   7   0  359.46   18.70
   1  -7   0 1309.57   60.59
   1  -7   0 1501.05   56.69
   1  -7   0 1447.96   75.89
  -1   7   0 1453.55   59.69
  -1   7   0 1300.67   53.59
  -1   7   0 1469.45   65.29
   0  -7   0  116.39   18.10
   0   7   0  131.69   13.80
   0   7   0  120.69   10.70
  -1  -7   0  871.91   50.19
   1   7   0  851.01   39.00
   1   7   0  803.72   42.30
   2   7   0  275.47   20.30
   2   7   0  301.37   18.60
  -3  -7   0  380.06   17.70
  -3  -7   0  360.56   32.30
   3   7   0  359.36   22.10
   4   7   0  390.26   23.10
  -5  -7   0  234.28   14.20
   4  -8   0   58.89    7.80
  -4   8   0   53.69   11.00
  -4   8   0   44.10    6.20
   3  -8   0 1693.93   67.89
  -3   8   0 1691.73   76.59
  -3   8   0 1580.64   68.29
   2  -8   0  620.64   27.60
  -2   8   0  574.24   34.60
  -2   8   0  437.86   22.20
   1  -8   0  555.94   27.00
  -1   8   0  580.94   29.90
  -1   8   0  601.54   35.60
   0   8   0   14.70    6.70
   0   8   0    1.60    4.00
   1   8   0   46.30    8.20
   1   8   0   62.29   12.30
  -2  -8   0  881.01   52.79
  -2  -8   0  806.62   34.30
   2   8   0  892.51   40.90
   2   8   0  801.92   42.40
  -3  -8   0  260.67   15.30
   3   8   0  260.77   18.00
   4   8   0  196.08   14.80
   3  -9   0  175.28   12.70
   2  -9   0  123.39   15.20
  -2   9   0  103.89   18.90
   1  -9   0 1111.79   47.20
  -1   9   0 1096.89   56.49
  -1   9   0 1108.59   49.99
   0  -9   0 1094.09   45.40
   0   9   0 1043.30   49.30
   0   9   0 1139.59   56.29
  -1  -9   0  513.15   23.00
   1   9   0  475.35   27.00
   1   9   0  454.75   30.60
  -2  -9   0  266.17   14.20
   3   9   0    5.00    4.80
   2 -10   0   70.29    8.30
  -2  10   0   43.50   10.20
   1 -10   0   11.50    4.40
  -1  10   0   17.60    7.80
  -1  10   0   10.40    4.90
   0 -10   0 2770.72  107.39
   0  10   0 2892.61  111.79
   0  10   0 2797.72  118.39
  -1 -10   0  344.17   16.80
   1  10   0  284.47   22.80
   1  10   0  291.47   19.40
   2  10   0   46.40    8.00
   2  10  -1   92.39    9.80
   1  10  -1  184.88   18.10
   1  10  -1  171.48   13.80
   0  10  -1  503.45   26.40
   0  10  -1  499.05   31.90
   0 -10   1  464.55   23.00
  -1  10  -1  326.47   20.10
  -1  10  -1  334.07   25.30
   1 -10   1  356.66   18.70
  -2  10  -1    6.90    6.50
   2 -10   1    3.70    3.80
   3   9  -1   16.80    4.80
   2   9  -1  -11.80    8.90
   2   9  -1    7.30    4.80
   1   9  -1 1425.66   63.69
   1   9  -1 1560.74   69.99
  -1  -9   1 1475.25   59.09
   0   9  -1  280.67   19.10
   0   9  -1  291.77   24.60
   0  -9   1  323.37   17.10
  -1   9  -1  634.74   33.20
  -1   9  -1  711.23   40.80
   1  -9   1  683.13   31.30
  -2   9  -1  145.99   17.00
   2  -9   1  154.98   12.50
  -3   9  -1   32.40    9.30
   3  -9   1   35.60    6.70
   4   8  -1  192.28   14.30
  -4  -8   1  199.78   11.20
  -3  -8   1  991.50   39.90
   2   8  -1   23.40    6.60
   2   8  -1   11.00    6.80
  -2  -8   1   25.40   11.70
   1   8  -1  118.09   14.60
   1   8  -1  101.19   10.90
   0   8  -1 1042.70   46.90
   0   8  -1 1015.30   52.49
  -1   8  -1  161.08   17.70
  -1   8  -1  163.68   13.50
   1  -8   1  172.38   11.80
  -2   8  -1  477.55   31.80
   2  -8   1  472.65   24.70
  -3   8  -1  177.78   12.50
   3  -8   1  199.98   14.30
  -4   8  -1  237.88   22.70
  -4   8  -1  201.48   12.40
   4  -8   1  270.17   15.10
   4   7  -1  534.45   28.60
  -4  -7   1  537.05   24.30
   3   7  -1  350.06   20.90
   3   7  -1  289.27   18.30
  -3  -7   1  312.07   30.50
  -3  -7   1  317.47   15.30
   2   7  -1  795.52   36.30
   2   7  -1  687.43   38.10
   1   7  -1  391.56   26.20
   1   7  -1  435.36   23.30
  -1  -7   1  443.66   32.90
   0   7  -1 1107.19   52.79
   0   7  -1 1061.69   47.30
  -1   7  -1  304.17   22.30
  -1   7  -1  285.77   17.70
   1  -7   1  288.97   15.50
   1  -7   1  267.77   27.30
   1  -7   1  274.37   19.30
  -2   7  -1  746.93   34.80
  -2   7  -1  699.23   31.20
  -2   7  -1  752.12   40.10
  -2   7  -1  662.33   32.50
   2  -7   1  715.53   32.70
  -3   7  -1  205.88   18.70
  -3   7  -1  177.28   12.90
   3  -7   1  192.28   14.10
  -4   7  -1   29.50    6.40
  -4   7  -1   31.10    8.70
   4  -7   1   35.50    6.60
   4  -7   1   27.10    6.10
   5   6  -1  475.55   24.90
  -5  -6   1  427.76   20.90
   4   6  -1   87.59   10.30
  -4  -6   1   53.29   16.00
  -4  -6   1   92.09    7.70
   3   6  -1 1148.29   49.99
   3   6  -1 1240.48   51.99
  -3  -6   1 1138.59   45.90
   2   6  -1  530.65   26.30
   2   6  -1  482.05   27.80
   2   6  -1  536.65   26.70
   1   6  -1  792.12   35.20
   1   6  -1  874.71   37.40
   1   6  -1  840.12   40.70
   0   6  -1  206.78   13.30
   0  -6   1  269.97   14.90
   0  -6   1  287.07   23.10
  -1   6  -1 1079.29   50.19
  -1   6  -1 1004.20   43.80
  -1   6  -1 1097.69   45.80
  -1   6  -1 1057.09   42.00
   1  -6   1 1094.09   58.29
  -2   6  -1  463.25   23.80
  -2   6  -1  456.25   27.80
  -2   6  -1  465.25   22.30
   2  -6   1  440.46   22.10
   2  -6   1  421.16   26.60
  -3   6  -1 1077.99   52.49
  -3   6  -1 1071.59   47.20
   3  -6   1 1088.59   46.60
   3  -6   1 1070.19   46.40
  -4   6  -1  110.49   11.30
  -4   6  -1  108.29   14.30
   4  -6   1  106.79   10.60
   4  -6   1  121.79   10.60
  -5   6  -1  115.39   10.50
   5  -6   1   94.79    8.90
   5   5  -1   49.99    8.80
  -5  -5   1   67.99    7.50
   4   5  -1   87.09    9.80
   4   5  -1   83.29   10.40
  -4  -5   1   87.59   17.90
  -4  -5   1   96.59    8.00
   3   5  -1  296.27   18.00
   3   5  -1  307.17   17.60
  -3  -5   1  288.57   15.20
  -3  -5   1  326.47   26.50
   2   5  -1  210.48   15.40
   2   5  -1  237.98   14.30
   2   5  -1  233.58   13.40
  -2  -5   1  212.78   16.00
   1   5  -1 1036.20   47.70
   1   5  -1 1031.60   45.00
   1   5  -1 1095.49   45.20
  -1  -5   1 1126.19   43.10
  -1  -5   1 1170.48   52.09
   0   5  -1  409.06   19.80
   0   5  -1  388.76   22.40
   0  -5   1  424.36   26.70
   0  -5   1  396.36   19.40
  -1   5  -1  734.83   36.60
  -1   5  -1  792.12   31.80
  -1   5  -1  785.42   33.80
   1  -5   1  765.12   31.40
   1  -5   1  765.42   42.50
   1  -5   1  784.72   35.00
  -2   5  -1 2587.14  106.49
  -2   5  -1 2751.22  102.79
   2  -5   1 2629.84  106.19
   2  -5   1 2769.82  116.79
   2  -5   1 2558.14  101.49
  -3   5  -1  353.76   20.10
  -3   5  -1  348.57   22.40
   3  -5   1  343.07   18.60
   3  -5   1  367.66   38.40
   3  -5   1  346.77   18.70
   3  -5   1  323.77   23.50
  -4   5  -1   36.70    9.00
  -4   5  -1   55.39    9.10
   4  -5   1   58.39    7.10
   4  -5   1   52.59    7.50
  -5   5  -1   48.20    8.50
   5  -5   1   45.60    7.10
   6   4  -1    0.90    5.60
   5   4  -1  163.98   13.60
  -5  -4   1  148.99   11.10
   4   4  -1  689.23   33.10
   4   4  -1  679.93   33.10
  -4  -4   1  654.13   30.60
   3   4  -1  151.58   10.70
   3   4  -1  131.59   10.50
   3   4  -1  127.99   10.50
  -3  -4   1  133.19    8.10
  -3  -4   1  157.88   17.50
   2   4  -1  828.52   34.70
   2   4  -1  798.22   34.80
   2   4  -1  796.22   34.30
  -2  -4   1  815.32   36.20
  -2  -4   1  818.62   32.90
  -2  -4   1  809.12   32.90
   1   4  -1 1163.18   48.90
  -1  -4   1 1181.08   47.10
  -1  -4   1 1313.87   55.89
   0   4  -1  522.85   26.60
   0   4  -1  564.74   24.30
   0  -4   1  568.34   29.80
   0  -4   1  570.74   24.30
  -1   4  -1 1225.18   48.50
  -1   4  -1 1268.67   52.69
   1  -4   1 1296.37   50.99
   1  -4   1 1188.68   56.79
  -2   4  -1  372.66   20.80
  -2   4  -1  377.46   18.40
  -2   4  -1  364.36   18.20
   2  -4   1  349.47   20.10
   2  -4   1  336.67   17.00
   2  -4   1  334.47   17.30
  -3   4  -1 1016.30   44.80
  -3   4  -1 1020.40   57.69
   3  -4   1 1062.09   43.10
   3  -4   1  942.21   53.69
   3  -4   1  945.41   48.10
   3  -4   1 1180.58   46.90
  -4   4  -1  119.79   11.70
   4  -4   1  108.09   11.20
  -5   4  -1  331.57   21.60
   5  -4   1  322.67   18.70
  -6   4  -1  159.58   14.40
   6  -4   1  144.09   12.80
   6   3  -1  103.19   10.00
  -6  -3   1  103.79    8.90
   5   3  -1   94.29   10.30
  -5  -3   1   83.59   25.60
  -5  -3   1   84.49    8.80
   4   3  -1  134.49   11.60
   4   3  -1  127.19    7.40
   4   3  -1  129.89   11.00
  -4  -3   1  113.79   17.10
  -4  -3   1  121.09    9.00
   3   3  -1    7.10    3.10
   3   3  -1    5.50    1.60
   3   3  -1    7.80    2.90
   3   3  -1    5.50    3.90
  -3  -3   1    8.10    5.60
  -3  -3   1    5.10    2.30
   2   3  -1 2172.18   81.69
  -2  -3   1 2304.77   88.49
  -2  -3   1 2061.99   80.59
  -2  -3   1 1984.90   80.49
   1   3  -1  679.53   29.40
  -1  -3   1  719.43   31.40
  -1  -3   1  730.43   28.60
   0  -3   1 1467.95   53.99
   0  -3   1 1344.77   57.89
  -1   3  -1  348.37   17.90
   1  -3   1  356.96   17.20
  -2   3  -1  813.22   42.70
  -2   3  -1  826.32   36.70
   2  -3   1  845.12   36.90
  -3   3  -1 1015.10   43.50
  -3   3  -1  981.60   43.90
  -3   3  -1  984.20   54.29
   3  -3   1 1061.29   47.00
   3  -3   1  971.10   41.40
  -4   3  -1  921.41   57.69
  -4   3  -1  952.40   43.80
   4  -3   1  888.91   51.39
   4  -3   1  956.80   39.90
   4  -3   1  973.20   41.10
  -5   3  -1  518.05   28.50
   5  -3   1  487.15   24.80
   5  -3   1  457.55   30.00
  -6   3  -1   17.60    5.60
   6  -3   1   17.30    4.50
   6   2  -1  312.47   18.70
  -6  -2   1  315.67   17.20
   5   2  -1   10.50    3.10
  -5  -2   1    8.80    4.60
  -5  -2   1    5.00   11.20
   4   2  -1  723.73   30.50
   4   2  -1  701.03   34.40
   4   2  -1  707.93   34.70
  -4  -2   1  750.52   46.70
  -4  -2   1  751.82   31.40
   3   2  -1 1472.95   59.59
   3   2  -1 1438.96   59.69
   3   2  -1 1458.95   56.29
  -3  -2   1 1575.24   69.29
  -3  -2   1 1453.65   56.49
   2   2  -1 1897.71   73.79
   2   2  -1 1907.01   73.89
  -2  -2   1 1883.41   73.69
  -2  -2   1 2039.40   79.59
   1   2  -1 1854.51   69.49
  -1  -2   1 1846.62   69.99
  -2   2  -1 2944.21  114.99
  -2   2  -1 3054.69  122.19
   2  -2   1 3188.78  116.49
  -3   2  -1 4776.52  178.68
  -3   2  -1 4682.03  174.88
  -3   2  -1 4622.64  189.68
   3  -2   1 4725.43  176.38
   3  -2   1 4843.32  176.08
   3  -2   1 4953.90  181.68
  -4   2  -1  445.26   24.60
  -4   2  -1  417.16   34.30
  -4   2  -1  430.36   20.60
   4  -2   1  441.16   31.20
   4  -2   1  442.66   21.90
  -5   2  -1  203.88   16.00
  -5   2  -1  197.18   12.80
  -5   2  -1  162.58   24.80
   5  -2   1  196.88   18.60
   5  -2   1  203.18   13.50
  -6   2  -1  477.65   26.00
   6  -2   1  424.16   22.00
   6   1  -1   -1.50    2.10
   6   1  -1    4.80    3.40
  -6  -1   1    0.10    3.50
   5   1  -1  171.58   11.00
  -5  -1   1  161.48   24.80
  -5  -1   1  172.78   12.30
   4   1  -1  461.95   20.80
   4   1  -1  450.85   24.70
   4   1  -1  456.35   24.10
  -4  -1   1  401.06   24.20
  -4  -1   1  420.26   33.20
  -4  -1   1  440.76   20.90
   3   1  -1  133.59   10.30
   3   1  -1  134.89    8.00
   3   1  -1  146.09   10.10
  -3  -1   1  131.79   14.70
  -3  -1   1  136.89    8.20
  -2  -1   1 4145.08  153.58
   1   1  -1 6222.68  240.58
   0   1  -1 2086.39   79.09
   0  -1   1 2085.69   79.09
  -1   1  -1 1443.76   56.19
  -1   1  -1 1371.26   53.79
   1  -1   1 1414.56   53.59
  -2   1  -1 5607.64  207.48
  -3   1  -1  506.15   21.30
  -3   1  -1  501.45   24.00
  -3   1  -1  488.95   31.20
   3  -1   1  472.45   21.20
   3  -1   1  492.05   21.80
   3  -1   1  501.25   25.50
   3  -1   1  441.76   28.60
  -4   1  -1 1853.61   80.49
  -4   1  -1 1930.31   94.59
  -4   1  -1 2029.60   76.69
   4  -1   1 2020.10   77.79
   4  -1   1 2093.29   85.69
  -5   1  -1  247.78   29.50
  -5   1  -1  278.57   19.20
  -5   1  -1  271.67   15.70
   5  -1   1  259.97   26.70
   5  -1   1  275.17   16.10
  -6   1  -1  731.83   37.10
   6  -1   1  789.92   33.90
   6   0  -1  269.97   14.80
  -6   0   1  297.87   20.00
  -6   0   1  292.67   16.20
   5   0  -1  904.21   47.70
   5   0  -1  852.71   38.20
  -5   0   1  909.81   43.60
  -5   0   1  923.71   39.00
  -5   0   1  869.51   58.39
   4   0  -1  140.89   12.80
   4   0  -1  131.89    9.30
  -4   0   1  152.58    9.90
  -4   0   1  132.09   18.20
  -4   0   1  136.29   14.10
   3   0  -1  297.57   14.20
   3   0  -1  300.57   16.20
   3   0  -1  299.47   17.10
  -3   0   1  282.87   22.20
  -3   0   1  283.97   13.90
  -3   0   1  272.07   16.20
   2   0  -1  765.02   32.40
   2   0  -1  761.82   30.70
   1   0  -1    0.10    2.40
  -2   0  -1 1684.93   64.09
   2   0   1 1624.04   66.09
   2   0   1 1631.84   63.59
  -3   0  -1  585.04   28.30
  -3   0  -1  625.74   25.80
  -3   0  -1  604.14   35.20
   3   0   1  632.84   29.60
   3   0   1  625.14   30.90
  -4   0  -1 1443.66   74.89
  -4   0  -1 1485.25   63.09
  -4   0  -1 1498.35   58.69
   4   0   1 1492.35   62.89
   4   0   1 1501.95   59.19
  -5   0  -1   47.60    8.80
  -5   0  -1   41.00    6.60
  -5   0  -1   38.70   13.30
   5   0   1   36.80    6.10
  -6   0  -1  342.67   18.20
  -6   0  -1  347.67   22.00
   6   0   1  341.87   17.70
   6  -1  -1  195.48   11.80
  -6   1   1  168.98   14.80
  -6   1   1  178.78   11.90
   5  -1  -1 1548.35   60.19
  -5   1   1 1416.56   64.19
  -5   1   1 1545.25   59.39
  -5   1   1 1321.07   80.29
   4  -1  -1  226.58   18.50
   4  -1  -1  226.48   13.10
  -4   1   1  205.98   15.40
  -4   1   1  196.38   22.60
  -4   1   1  229.88   12.80
   3  -1  -1 2321.37   82.99
   3  -1  -1 2156.98   87.29
   3  -1  -1 2130.39   84.79
  -3   1   1 2137.39   94.69
  -3   1   1 2066.59   84.99
  -3   1   1 2216.58   81.99
   2  -1  -1  375.46   18.10
  -2   1   1  345.77   21.40
  -2   1   1  325.87   17.60
  -1  -1  -1 1331.17   52.29
  -1  -1  -1 1361.06   50.19
   1   1   1 1328.07   50.19
   1   1   1 1320.67   49.99
   1   1   1 1460.85   52.49
  -2  -1  -1 1537.95   60.79
  -2  -1  -1 1615.24   66.19
   2   1   1 1616.14   60.39
   2   1   1 1646.64   62.29
   2   1   1 1528.55   60.89
  -3  -1  -1 1594.44   70.89
  -3  -1  -1 1511.25   59.19
   3   1   1 1516.05   61.79
   3   1   1 1560.04   61.39
   3   1   1 1575.44   61.49
   3   1   1 1536.35   59.49
  -4  -1  -1 1051.59   45.20
  -4  -1  -1  955.70   55.59
  -4  -1  -1 1021.10   41.10
   4   1   1  959.00   43.50
   4   1   1  988.80   41.00
  -5  -1  -1  374.46   35.80
  -5  -1  -1  401.46   24.50
  -5  -1  -1  410.66   20.80
   5   1   1  403.06   20.30
  -6  -1  -1  251.47   14.60
   6   1   1  235.58   15.80
   6   1   1  223.68   12.80
   6  -2  -1  548.35   26.00
  -6   2   1  574.54   30.10
   5  -2  -1  137.89   15.30
   5  -2  -1  142.69   11.00
  -5   2   1  127.29   22.50
  -5   2   1  162.98   14.60
  -5   2   1  145.59   10.90
   4  -2  -1  298.17   17.10
  -4   2   1  314.17   29.50
  -4   2   1  345.37   20.60
  -4   2   1  340.77   16.90
   3  -2  -1  140.69    9.20
   3  -2  -1  145.39   12.60
   3  -2  -1  137.99    9.10
   3  -2  -1  138.89   13.80
  -3   2   1  146.59   16.70
  -3   2   1  149.49   11.00
  -3   2   1  150.08    9.00
   2  -2  -1  562.34   28.30
   2  -2  -1  616.54   27.40
  -2   2   1  573.34   27.30
  -2   2   1  591.14   32.20
   0  -2  -1 1341.37   52.99
   0  -2  -1 1284.97   49.30
   0   2   1 1349.77   53.49
   0   2   1 1365.76   49.60
  -2  -2  -1 2370.16   86.49
  -2  -2  -1 2490.25   93.89
  -2  -2  -1 2103.29   88.79
   2   2   1 2265.87   86.19
   2   2   1 2384.26   88.99
  -3  -2  -1 2664.23   98.09
  -3  -2  -1 2472.05  101.89
  -3  -2  -1 2205.88   88.99
   3   2   1 2383.16   91.99
   3   2   1 2307.77   90.59
   3   2   1 2309.67   89.29
  -4  -2  -1 1798.02   89.39
  -4  -2  -1 1817.42   72.69
   4   2   1 2024.10   72.99
  -5  -2  -1  434.76   39.10
  -5  -2  -1  516.95   24.40
   5   2   1  515.15   23.30
  -6  -2  -1 1599.44   63.99
   6   2   1 1620.14   66.79
   6  -3  -1  104.59    8.30
  -6   3   1   75.99    9.50
   5  -3  -1  131.19   16.50
   5  -3  -1  135.69   10.80
  -5   3   1  138.19   13.60
   4  -3  -1  594.84   28.10
   4  -3  -1  667.93   30.00
  -4   3   1  646.44   27.90
  -4   3   1  646.84   32.80
  -4   3   1  626.54   45.20
   3  -3  -1  864.21   35.40
   3  -3  -1  866.51   35.90
   3  -3  -1  873.61   43.30
   3  -3  -1  817.42   40.40
  -3   3   1  813.12   33.90
  -3   3   1  782.52   41.20
   2  -3  -1  739.83   32.20
   2  -3  -1  786.82   38.60
   2  -3  -1  799.82   35.30
  -2   3   1  794.42   41.60
   1  -3  -1 1064.79   48.40
   1  -3  -1 1115.19   44.30
  -1   3   1 1145.09   45.00
   0  -3  -1 1098.49   43.90
   0  -3  -1 1177.08   49.30
   0   3   1 1210.28   45.10
  -1  -3  -1  722.13   34.80
   1   3   1  875.01   33.10
  -2  -3  -1 1369.66   50.89
  -2  -3  -1 1361.26   56.39
   2   3   1 1375.86   52.29
  -3  -3  -1 3721.93  138.99
  -3  -3  -1 3814.92  152.98
   3   3   1 3791.22  138.79
   3   3   1 3876.31  142.19
   3   3   1 3646.94  141.79
  -4  -3  -1  212.18   12.80
  -4  -3  -1  224.18   23.60
   4   3   1  229.48   12.00
   4   3   1  229.28   14.90
  -5  -3  -1  816.32   62.79
  -5  -3  -1  823.92   36.50
   5   3   1  823.52   34.00
   5   3   1  871.41   40.00
  -6  -3  -1   23.50    5.10
   6   3   1   23.10    5.70
   6  -4  -1  138.39   10.80
  -6   4   1   94.69   13.30
   5  -4  -1  265.07   23.40
   5  -4  -1  313.37   17.80
  -5   4   1  288.67   20.10
   4  -4  -1  163.08   12.00
   4  -4  -1  150.08   11.70
  -4   4   1  193.88   37.40
  -4   4   1  172.28   14.60
  -4   4   1  163.48   14.10
   3  -4  -1  292.37   16.30
   3  -4  -1  314.47   24.80
   3  -4  -1  318.77   21.30
   3  -4  -1  291.07   16.40
  -3   4   1  325.67   18.70
  -3   4   1  312.17   27.80
   2  -4  -1 1071.69   43.60
   2  -4  -1 1042.80   43.10
   2  -4  -1 1104.29   47.20
   2  -4  -1 1064.59   52.09
  -2   4   1 1072.29   44.60
  -2   4   1 1075.39   44.30
   1  -4  -1 1400.26   61.29
   1  -4  -1 1355.66   54.79
   1  -4  -1 1274.07   52.29
  -1   4   1 1456.35   59.19
  -1   4   1 1391.26   58.79
   0  -4  -1  704.53   27.80
   0  -4  -1  664.73   34.10
   0   4   1  689.53   28.50
  -1  -4  -1 3037.00  119.09
   2   4   1  100.49    6.80
   2   4   1  102.49    7.60
   2   4   1   99.19    7.80
  -3  -4  -1  849.02   45.60
   3   4   1  794.92   35.10
   3   4   1  721.43   30.30
   4   4   1   86.29    9.40
  -5  -4  -1  189.88   12.90
  -5  -4  -1  239.58   45.60
   5   4   1  196.58   15.20
   6   4   1  466.25   24.40
   5  -5  -1  173.68   12.60
  -5   5   1  188.98   15.40
   4  -5  -1   41.60    6.70
   4  -5  -1   54.09    8.30
  -4   5   1   41.80    9.60
  -4   5   1   50.09    8.60
   3  -5  -1  123.09    9.60
   3  -5  -1  126.39   10.10
   3  -5  -1  133.09   17.80
   3  -5  -1  116.29   12.90
  -3   5   1  118.29   10.70
  -3   5   1   83.29   11.60
   2  -5  -1  711.53   35.70
   2  -5  -1  734.93   42.80
   2  -5  -1  731.93   32.10
  -2   5   1  747.23   33.40
   1  -5  -1  560.34   26.50
   1  -5  -1  547.25   23.90
  -1   5   1  569.64   26.00
  -1   5   1  558.94   24.50
   0  -5  -1 3537.85  135.39
   0  -5  -1 3298.77  123.99
   0   5   1 3187.68  122.69
  -1  -5  -1 1254.57   56.09
   1   5   1 1128.79   48.40
  -2  -5  -1  547.05   30.50
   2   5   1  503.55   26.60
   2   5   1  535.85   25.50
  -3  -5  -1  435.66   19.50
  -3  -5  -1  464.45   32.80
   3   5   1  396.26   22.50
   3   5   1  436.46   22.30
  -4  -5  -1   16.10    9.80
  -4  -5  -1   14.50    3.90
   4   5   1   20.60    6.00
  -5  -5  -1   69.69    7.90
   5   5   1   74.99    9.00
   5  -6  -1   71.69    7.70
  -5   6   1   78.79    9.50
   4  -6  -1   73.09    8.10
   4  -6  -1   86.49    9.50
  -4   6   1   64.29   11.10
  -4   6   1   89.79   10.50
   3  -6  -1  721.13   34.10
   3  -6  -1  757.62   34.40
  -3   6   1  764.42   36.00
   2  -6  -1 1507.25   58.49
   2  -6  -1 1446.36   74.19
   2  -6  -1 1332.97   63.09
  -2   6   1 1448.06   64.69
  -2   6   1 1476.45   59.19
  -2   6   1 1426.66   59.89
   1  -6  -1  303.27   17.90
   1  -6  -1  291.77   16.50
   1  -6  -1  310.77   25.90
  -1   6   1  303.97   20.20
  -1   6   1  302.07   17.40
  -1   6   1  297.27   17.00
   0  -6  -1 1130.09   45.50
   0  -6  -1 1144.09   47.00
   0  -6  -1 1232.68   60.09
   0   6   1 1195.18   54.59
   0   6   1 1186.88   49.40
  -1  -6  -1  179.78   17.70
  -1  -6  -1  134.99   10.00
   1   6   1  155.88   11.30
   1   6   1  161.68   14.90
  -2  -6  -1  800.12   31.60
   2   6   1  797.82   36.20
   2   6   1  757.62   37.40
  -3  -6  -1  481.15   21.70
  -3  -6  -1  511.85   42.60
   3   6   1  497.35   26.20
   3   6   1  463.65   24.30
  -4  -6  -1  432.06   21.10
   4   6   1  438.66   25.10
   5   6   1  274.77   18.10
   4  -7  -1  147.59   12.10
   4  -7  -1  148.99   12.10
  -4   7   1  154.38   12.90
  -4   7   1  159.78   16.80
   3  -7  -1   64.29    7.30
   3  -7  -1   53.59    8.40
  -3   7   1   57.29   11.00
  -3   7   1   54.99    8.60
   2  -7  -1  895.71   40.70
  -2   7   1  884.51   41.20
  -2   7   1  947.01   42.40
  -2   7   1  952.10   47.90
   1  -7  -1 2422.46   96.19
   1  -7  -1 2340.17   91.39
   1  -7  -1 2307.87  110.69
  -1   7   1 2348.27   89.99
  -1   7   1 2501.15  100.69
  -1   7   1 2376.16   94.59
   0  -7  -1  152.28   19.10
   0  -7  -1  132.39    9.00
   0   7   1  151.08   14.90
   0   7   1  151.98   11.70
  -1  -7  -1 2805.92  125.09
   1   7   1 2896.81  111.69
   1   7   1 2847.11  115.59
   2   7   1  162.78   13.00
   2   7   1  138.69   14.00
  -3  -7  -1  274.77   27.60
   3   7   1  311.57   19.60
   4   7   1  387.36   23.70
  -5  -7  -1  131.99    9.20
   5   7   1  137.89   13.10
   4  -8  -1  311.87   17.60
  -4   8   1  293.77   16.90
  -4   8   1  360.06   33.80
   3  -8  -1  365.96   21.00
  -3   8   1  367.26   20.60
  -3   8   1  365.86   26.20
   2  -8  -1  856.11   37.10
  -2   8   1  811.02   44.50
  -2   8   1  717.53   33.50
  -2   8   1  851.11   39.10
   1  -8  -1  124.99   10.20
  -1   8   1  128.89   12.00
  -1   8   1  134.59   15.80
   0   8   1  806.22   38.70
   0   8   1  818.02   43.80
   1   8   1  725.93   35.60
   1   8   1  703.63   39.20
  -2  -8  -1  442.36   20.10
   2   8   1  404.86   26.80
   2   8   1  454.95   25.40
   3   8   1 2098.39   86.49
  -4  -8  -1  148.29    9.90
   4   8   1  148.39   12.90
   3  -9  -1   93.59    9.50
  -3   9   1   68.29   12.40
  -2   9   1   99.29   21.50
   1  -9  -1  563.64   27.00
  -1   9   1  499.75   28.40
  -1   9   1  565.34   35.00
   0  -9  -1   47.00    6.80
   0   9   1   43.70    8.70
   0   9   1   34.40    9.70
  -1  -9  -1  626.84   28.40
   1   9   1  599.64   36.40
   1   9   1  671.93   33.50
  -2  -9  -1   26.50    5.10
   2   9   1   28.00    7.40
  -3  -9  -1   39.00    5.30
   3   9   1   48.00    8.30
   2 -10  -1   75.39    8.60
  -2  10   1   77.19   13.30
   1 -10  -1  621.74   29.20
  -1  10   1  590.54   31.00
  -1  10   1  644.94   37.50
   0 -10  -1  459.45   23.10
   0  10   1  518.15   31.80
   0  10   1  448.96   25.70
  -1 -10  -1  337.77   17.90
   1  10   1  342.77   21.20
  -2 -10  -1    0.20    3.90
   2  10   1    4.30    3.90
   0 -11  -1   21.00    4.60
   2  10  -2  238.98   16.00
   1  10  -2   39.50    7.10
   1  10  -2   47.00   10.80
   0  10  -2    8.80    6.60
   0  10  -2    7.50    4.40
   0 -10   2    3.70    3.70
  -1  10  -2   15.10    7.80
   1 -10   2   19.70    4.60
  -2  10  -2   46.60   10.70
   2 -10   2   43.80    6.30
   3   9  -2   86.49    9.60
   2   9  -2   53.59   11.90
   2   9  -2   79.49    9.40
   1   9  -2  121.19   11.90
   1   9  -2  130.39   15.60
   0   9  -2  533.15   34.10
   0   9  -2  525.55   28.30
   0  -9   2  518.45   24.70
  -1   9  -2  448.46   25.40
  -1   9  -2  510.35   32.80
   1  -9   2  457.35   23.30
  -2   9  -2    6.00    7.10
   2  -9   2   10.70    5.00
  -3   9  -2   11.40    6.60
   3  -9   2    5.30    3.90
   4   8  -2  660.63   31.70
  -4  -8   2  647.94   27.30
   3   8  -2  760.12   36.70
   2   8  -2  604.64   35.20
   2   8  -2  645.44   32.50
   1   8  -2 1058.69   47.60
   1   8  -2 1022.80   52.19
   0   8  -2   62.49   12.50
   0   8  -2   53.09    8.90
   0  -8   2   51.49    7.90
  -1   8  -2 1594.74   74.29
  -1   8  -2 1629.24   67.49
   1  -8   2 1565.14   63.89
  -2   8  -2   38.00   10.30
   2  -8   2   48.20    7.90
  -3   8  -2  506.25   21.60
  -4   8  -2   86.09    7.40
  -4   8  -2  127.49   14.50
   4  -8   2  115.59    9.90
   4   7  -2   48.90    8.40
  -4  -7   2   40.50    5.30
   3   7  -2  477.95   25.70
   3   7  -2  456.75   23.90
  -3  -7   2  407.96   36.80
   2   7  -2  500.95   25.10
   2   7  -2  505.35   29.20
   2   7  -2  521.15   27.00
  -2  -7   2  471.55   37.40
   1   7  -2  662.13   36.00
   1   7  -2  696.33   32.20
   1   7  -2  602.74   29.40
  -1  -7   2  634.24   46.70
   0   7  -2  605.64   34.60
   0   7  -2  616.74   30.10
   0   7  -2  603.64   29.60
   0  -7   2  617.84   42.60
  -1   7  -2  230.68   15.30
  -1   7  -2  203.58   14.00
  -1   7  -2  211.38   18.90
   1  -7   2  203.38   17.20
   1  -7   2  231.28   13.00
  -2   7  -2  943.61   43.10
  -2   7  -2  939.81   48.90
  -2   7  -2  941.41   39.30
  -2   7  -2  929.81   42.00
   2  -7   2  979.50   41.50
  -3   7  -2    5.80    3.30
  -3   7  -2    9.90    6.60
   3  -7   2    7.10    4.60
  -4   7  -2  758.42   39.50
  -4   7  -2  759.72   34.30
   4  -7   2  722.73   33.80
   5   6  -2  144.39   11.60
  -5  -6   2  137.69    9.40
   4   6  -2  368.46   22.00
   4   6  -2  381.66   22.60
  -4  -6   2  406.86   19.30
   3   6  -2 1586.34   64.79
   3   6  -2 1558.74   65.69
  -3  -6   2 1549.84   59.89
   2   6  -2   80.59    8.40
   2   6  -2   92.09    9.00
   2   6  -2   80.69   10.90
  -2  -6   2   90.89   13.30
   1   6  -2  953.50   41.90
   1   6  -2  900.01   40.40
   1   6  -2  971.80   48.70
  -1  -6   2 1047.00   54.99
   0   6  -2  424.66   25.70
   0   6  -2  471.35   24.70
   0   6  -2  428.06   21.20
   0  -6   2  428.66   30.70
   0  -6   2  441.26   22.70
  -1   6  -2 1155.78   46.40
  -1   6  -2 1216.68   55.79
  -1   6  -2 1222.28   51.09
  -1   6  -2 1218.28   50.09
   1  -6   2 1218.38   53.29
   1  -6   2 1254.07   64.49
  -2   6  -2  653.13   30.50
  -2   6  -2  607.14   34.50
  -2   6  -2  643.34   28.50
   2  -6   2  604.94   42.80
   2  -6   2  637.34   28.80
   2  -6   2  604.44   34.00
  -3   6  -2 1361.16   63.39
  -3   6  -2 1366.66   57.79
   3  -6   2 1342.07   57.19
   3  -6   2 1425.56   57.39
  -4   6  -2  220.58   19.30
  -4   6  -2  195.08   15.10
   4  -6   2  217.48   15.00
   4  -6   2  233.98   15.20
  -5   6  -2   56.89    8.40
   5  -6   2   59.99    7.00
   5   5  -2  198.08   14.70
  -5  -5   2  185.68   12.00
   4   5  -2 1762.62   72.69
   4   5  -2 1829.52   73.39
  -4  -5   2 1670.23   88.19
  -4  -5   2 1746.93   68.09
   3   5  -2  120.29   10.30
   3   5  -2  131.29   10.90
   3   5  -2  102.49   10.90
  -3  -5   2  119.79   16.90
  -3  -5   2  115.79    9.10
   2   5  -2  513.75   25.80
   2   5  -2  533.05   31.60
   2   5  -2  467.65   26.60
   2   5  -2  507.35   24.60
  -2  -5   2  460.25   26.30
  -2  -5   2  552.54   31.80
   1   5  -2  759.62   34.60
   1   5  -2  711.23   32.20
   1   5  -2  742.13   32.90
   1   5  -2  770.62   36.40
  -1  -5   2  765.82   38.90
  -1  -5   2  786.12   32.40
   0   5  -2 1057.59   43.20
   0   5  -2 1035.80   46.80
   0  -5   2 1075.79   43.80
   0  -5   2  988.00   50.69
  -1   5  -2  851.91   40.40
  -1   5  -2  852.71   34.40
  -1   5  -2  873.71   36.80
   1  -5   2  881.71   38.70
   1  -5   2  809.42   34.20
  -2   5  -2  977.80   41.50
   2  -5   2  961.30   53.39
   2  -5   2  978.10   44.90
   2  -5   2  903.71   40.40
  -3   5  -2  242.58   15.60
  -3   5  -2  231.98   17.80
   3  -5   2  230.08   19.00
   3  -5   2  220.48   24.50
   3  -5   2  223.38   14.20
   3  -5   2  261.97   15.10
  -4   5  -2   97.69   13.20
  -4   5  -2  115.69   11.40
   4  -5   2   92.49    9.50
   4  -5   2  104.79    9.50
  -5   5  -2  268.97   18.40
   5  -5   2  274.37   16.60
   5   4  -2   85.99   13.70
  -5  -4   2   72.19   11.70
   4   4  -2   92.59    9.50
   4   4  -2   58.89    9.00
  -4  -4   2   79.89    7.20
  -4  -4   2   81.59   22.70
   3   4  -2  997.00   43.90
   3   4  -2 1026.00   44.50
   3   4  -2 1019.80   45.10
  -3  -4   2 1052.89   54.49
  -3  -4   2 1049.99   42.80
   2   4  -2  922.31   37.90
   2   4  -2  855.41   37.30
   2   4  -2  842.22   39.30
   2   4  -2  873.51   38.70
  -2  -4   2  907.11   37.30
  -2  -4   2  859.01   37.70
  -2  -4   2  965.50   44.80
   1   4  -2  536.45   25.20
   1   4  -2  620.04   27.30
   1   4  -2  548.05   27.90
  -1  -4   2  617.04   25.70
   0   4  -2 1327.77   56.39
   0  -4   2 1512.35   57.59
   0  -4   2 1516.85   63.79
  -1   4  -2  306.07   15.20
  -1   4  -2  331.97   19.30
   1  -4   2  361.56   18.20
  -2   4  -2  933.31   38.80
  -2   4  -2  894.01   41.70
  -2   4  -2  941.21   39.00
   2  -4   2  910.61   37.70
   2  -4   2  911.61   41.90
  -3   4  -2  193.58   21.40
  -3   4  -2  197.68   13.60
   3  -4   2  197.48   16.00
   3  -4   2  183.08   13.60
   3  -4   2  206.28   12.60
  -4   4  -2  347.67   21.20
  -4   4  -2  320.87   37.70
   4  -4   2  348.57   19.00
   4  -4   2  358.46   20.90
  -5   4  -2  438.76   25.90
   5  -4   2  452.85   23.60
  -6   4  -2   70.19   10.20
   6  -4   2   75.19    9.10
   6   3  -2    0.40    3.30
  -6  -3   2    3.90    3.80
   5   3  -2  162.98   13.10
  -5  -3   2  154.38   11.40
  -5  -3   2  130.49   24.80
   4   3  -2  214.28   15.10
   4   3  -2  200.48   13.90
  -4  -3   2  149.79   20.70
  -4  -3   2  191.48   11.60
   3   3  -2  503.75   20.70
   3   3  -2  551.44   25.30
   3   3  -2  524.35   25.60
   3   3  -2  540.55   26.30
  -3  -3   2  499.85   22.10
  -3  -3   2  562.24   33.80
   1   3  -2  296.57   15.10
  -1  -3   2  303.57   16.30
   0  -3   2 8754.32  327.67
  -1   3  -2 1471.95   59.49
   1  -3   2 1477.45   58.59
  -2   3  -2 1259.97   52.89
  -2   3  -2 1266.37   59.09
   2  -3   2 1285.37   53.19
  -3   3  -2   71.19   12.70
  -3   3  -2   72.09    7.80
  -3   3  -2   55.59    8.50
   3  -3   2   63.09    6.80
   3  -3   2   60.49    5.90
   3  -3   2   78.49    9.60
  -4   3  -2   33.70   12.20
  -4   3  -2   31.10    6.90
   4  -3   2   24.10    9.70
   4  -3   2   40.00    6.10
   4  -3   2   38.40    6.70
  -5   3  -2  206.88   32.30
  -5   3  -2  313.77   20.50
   5  -3   2  307.57   17.50
  -6   3  -2   16.10    5.40
   6  -3   2   12.60    3.60
   6   2  -2  260.97   16.50
  -6  -2   2  271.57   15.50
   5   2  -2   23.70    6.20
   5   2  -2   23.70    3.90
  -5  -2   2    6.80   10.30
  -5  -2   2   26.60    5.80
   4   2  -2  169.68   13.80
   4   2  -2  165.08    9.60
   4   2  -2  171.78   13.50
  -4  -2   2  159.78   20.10
  -4  -2   2  151.88   10.30
   3   2  -2  276.87   16.40
   3   2  -2  289.87   12.80
   3   2  -2  265.97   15.50
  -3  -2   2  286.17   22.20
  -3  -2   2  257.27   13.00
   2   2  -2 1294.57   53.09
   2   2  -2 1321.57   52.89
  -2  -2   2 1399.66   58.09
   1   2  -2 2096.29   79.99
  -1  -2   2 2152.88   79.99
  -1   2  -2  372.66   19.30
  -1   2  -2  370.96   17.60
   1  -2   2  337.97   16.80
  -2   2  -2  925.01   44.00
   2  -2   2  901.61   38.90
  -3   2  -2 1108.89   47.10
  -3   2  -2 1106.49   56.59
  -3   2  -2 1026.30   43.40
   3  -2   2 1161.98   52.89
   3  -2   2 1152.48   44.90
   3  -2   2 1127.59   45.20
  -4   2  -2  535.45   39.50
  -4   2  -2  568.14   29.20
  -4   2  -2  559.54   24.70
   4  -2   2  562.14   25.70
   4  -2   2  502.05   34.30
   4  -2   2  559.84   26.20
  -5   2  -2  438.46   39.60
  -5   2  -2  486.25   27.50
   5  -2   2  445.76   28.70
   5  -2   2  487.25   24.20
  -6   2  -2  375.56   22.70
   6  -2   2  369.56   19.50
   6   1  -2  129.39    8.20
   6   1  -2  172.68   12.60
  -6  -1   2  180.28   12.00
   5   1  -2  253.77   13.70
  -5  -1   2  218.28   27.60
  -5  -1   2  244.48   15.10
   4   1  -2  591.64   26.00
   4   1  -2  569.24   29.50
   4   1  -2  614.64   31.20
  -4  -1   2  612.34   41.30
  -4  -1   2  575.94   26.40
   3   1  -2  714.13   32.80
   3   1  -2  715.93   31.90
   3   1  -2  718.53   29.20
  -3  -1   2  696.93   29.10
  -3  -1   2  726.83   39.90
   2   1  -2  168.88   10.30
  -2  -1   2  167.38   10.60
  -2  -1   2  180.18   13.50
   1   1  -2  120.79    7.10
  -1  -1   2  113.29    5.20
  -1  -1   2  136.19    8.50
  -1  -1   2  108.39    5.30
  -1   1  -2 1557.64   60.79
  -1   1  -2 1619.34   62.59
   1  -1   2 1598.44   60.49
  -2   1  -2 2966.70  110.89
  -2   1  -2 2958.50  114.99
   2  -1   2 2801.22  109.89
  -3   1  -2  421.66   28.50
  -3   1  -2  437.86   19.30
  -3   1  -2  456.35   22.10
   3  -1   2  426.46   19.90
   3  -1   2  427.06   23.10
  -4   1  -2   68.09   13.80
  -4   1  -2   74.69    8.60
  -4   1  -2   69.59    7.00
   4  -1   2   76.89   10.60
   4  -1   2   71.39    6.70
  -5   1  -2  603.84   47.40
  -5   1  -2  634.54   29.00
  -5   1  -2  682.43   34.30
   5  -1   2  621.24   29.80
   5  -1   2  638.44   37.30
  -6   1  -2   14.00    5.50
  -6   1  -2   19.00    6.80
   6  -1   2   17.60    4.60
   6   0  -2  174.28   10.60
  -6   0   2  191.38   12.60
   5   0  -2   97.89    8.30
  -5   0   2   99.39    9.60
  -5   0   2   95.59   13.10
  -5   0   2   96.09   20.30
   4   0  -2  290.67   19.60
   4   0  -2  292.47   15.30
  -4   0   2  286.37   15.30
  -4   0   2  278.87   26.60
   3   0  -2  994.20   42.40
   3   0  -2  959.40   38.40
   3   0  -2  910.61   40.30
  -3   0   2  961.30   49.30
  -3   0   2  947.41   38.00
  -3   0   2  958.50   41.40
   2   0  -2 1547.65   61.29
  -2   0   2 1673.33   66.89
  -2   0   2 1467.75   61.49
  -1   0   2 6168.68  247.48
   0   0  -2   -0.50    0.90
  -2   0  -2  434.36   20.50
   2   0   2  444.36   23.70
   2   0   2  454.85   20.30
  -3   0  -2  355.66   16.70
  -3   0  -2  392.66   26.00
  -3   0  -2  367.46   19.10
   3   0   2  356.56   17.00
   3   0   2  362.56   23.50
   3   0   2  365.46   20.00
  -4   0  -2  414.76   22.50
  -4   0  -2  384.16   19.00
  -4   0  -2  364.76   30.50
   4   0   2  416.46   22.50
   4   0   2  404.76   19.70
   4   0   2  381.26   24.40
  -5   0  -2 1635.44   68.99
  -5   0  -2 1631.44   63.69
  -5   0  -2 1429.46   83.69
   5   0   2 1639.94   64.49
  -6   0  -2  439.16   25.70
   6   0   2  457.85   22.00
   6  -1  -2   90.49    7.50
  -6   1   2   91.09    8.60
  -6   1   2   76.29   11.10
   5  -1  -2  719.23   39.10
   5  -1  -2  717.93   31.90
  -5   1   2  584.44   47.90
  -5   1   2  731.83   31.90
  -5   1   2  706.03   36.30
   4  -1  -2  264.77   18.90
   4  -1  -2  268.37   14.70
  -4   1   2  250.77   25.80
  -4   1   2  267.27   14.60
  -4   1   2  257.17   17.60
   3  -1  -2   93.29    6.80
   3  -1  -2   78.19    8.60
   3  -1  -2   94.49    7.50
   3  -1  -2   99.49    8.20
  -3   1   2   97.49    8.40
  -3   1   2  107.09    7.00
  -3   1   2  111.19   13.90
   2  -1  -2  598.54   27.20
   2  -1  -2  611.74   26.40
  -2   1   2  586.04   31.30
  -1   1   2 8555.94  340.47
   0  -1  -2   93.89    6.40
   0   1   2   97.89    6.40
  -2  -1  -2  798.12   33.20
  -2  -1  -2  853.11   38.30
   2   1   2  815.62   33.10
   2   1   2  810.22   36.20
  -3  -1  -2 2409.26   99.79
  -3  -1  -2 2272.47   87.89
  -3  -1  -2 2260.37   91.09
   3   1   2 2365.46   88.39
   3   1   2 2360.96   91.39
   3   1   2 2404.96   89.59
  -4  -1  -2  431.36   21.30
  -4  -1  -2  478.45   34.60
   4   1   2  468.85   21.70
   4   1   2  453.35   23.00
  -5  -1  -2 2517.15   99.99
  -5  -1  -2 2428.96   94.79
   5   1   2 2420.16   94.79
  -6  -1  -2  384.96   31.60
   6   1   2  399.26   19.60
   6   1   2  435.56   23.00
   6  -2  -2   95.09    8.00
  -6   2   2   93.69   10.70
   5  -2  -2  114.99    9.70
   5  -2  -2  123.69   14.70
  -5   2   2  132.89   10.40
  -5   2   2  111.09   22.70
  -5   2   2  113.69   12.80
   4  -2  -2  358.46   23.30
   4  -2  -2  345.57   18.40
  -4   2   2  342.67   21.00
  -4   2   2  309.97   30.10
  -4   2   2  354.86   17.70
   3  -2  -2 1985.30   83.99
   3  -2  -2 1984.50   82.39
   3  -2  -2 2070.69   78.29
  -3   2   2 2097.49   77.09
  -3   2   2 1996.40   91.49
  -3   2   2 2032.50   80.59
   2  -2  -2 3056.19  115.29
   2  -2  -2 3062.09  114.09
   2  -2  -2 2820.22  110.79
  -2   2   2 2878.31  119.69
  -2   2   2 3084.59  112.59
  -1   2   2 8982.90  364.16
   0  -2  -2  206.08    9.10
   0  -2  -2  200.28   12.30
   0   2   2  225.68   13.00
   0   2   2  209.28    9.10
  -2  -2  -2  641.74   31.70
  -2  -2  -2  577.34   29.10
  -2  -2  -2  640.94   25.30
   2   2   2  610.74   24.40
   2   2   2  664.93   29.60
  -3  -2  -2  544.85   26.20
  -3  -2  -2  570.04   33.70
  -3  -2  -2  564.24   24.00
   3   2   2  585.94   24.20
   3   2   2  557.14   24.00
  -4  -2  -2 1015.20   45.60
  -4  -2  -2  985.00   56.59
  -4  -2  -2  984.10   41.50
   4   2   2 1050.79   41.60
  -5  -2  -2  549.74   26.20
  -5  -2  -2  530.15   42.90
   5   2   2  554.84   25.30
   6   2   2  622.34   29.20
   6   2   2  531.55   24.10
   6  -3  -2   91.99    7.70
  -6   3   2   74.19   10.50
   5  -3  -2  293.57   17.10
   5  -3  -2  279.67   22.20
  -5   3   2  279.57   16.30
  -5   3   2  224.68   31.00
  -5   3   2  305.27   20.80
   4  -3  -2  182.08   14.60
   4  -3  -2  194.08   12.70
  -4   3   2  186.28   29.50
  -4   3   2  174.48   11.50
  -4   3   2  182.38   14.80
   3  -3  -2  243.18   17.50
   3  -3  -2  243.68   18.70
   3  -3  -2  246.48   13.40
   3  -3  -2  238.88   15.70
  -3   3   2  225.68   12.40
  -3   3   2  230.88   15.10
  -3   3   2  241.88   23.10
   2  -3  -2 2206.38   89.09
   2  -3  -2 2043.20   82.29
   2  -3  -2 2354.06   86.29
  -2   3   2 2193.18   83.79
  -2   3   2 2049.59   92.29
   1  -3  -2 1003.70   45.90
   1  -3  -2 1022.50   42.10
  -1   3   2 1108.19   42.80
   0  -3  -2  706.03   28.40
   0  -3  -2  743.53   33.90
   0   3   2  752.62   28.80
  -1  -3  -2  823.32   36.90
   1   3   2  815.22   37.50
  -2  -3  -2 1069.09   47.30
   2   3   2 1106.69   41.40
   2   3   2 1078.59   47.60
   2   3   2 1060.49   40.30
  -3  -3  -2  835.02   44.70
  -3  -3  -2  773.22   31.60
   3   3   2  774.92   31.40
   3   3   2  785.72   34.10
   3   3   2  702.53   36.10
   3   3   2  784.72   34.00
  -4  -3  -2  667.83   44.80
  -4  -3  -2  697.43   30.70
   4   3   2  700.23   33.40
   4   3   2  753.22   30.40
  -5  -3  -2  388.66   44.50
  -5  -3  -2  441.06   21.90
   5   3   2  434.86   24.30
   5   3   2  420.96   19.80
   6   3   2  173.48   13.30
   5  -4  -2  320.57   18.50
   5  -4  -2  319.97   28.50
  -5   4   2  310.77   21.30
   4  -4  -2  535.35   26.30
   4  -4  -2  525.65   25.30
  -4   4   2  501.35   28.30
  -4   4   2  562.94   29.30
   3  -4  -2  236.88   13.90
   3  -4  -2  233.58   18.00
   3  -4  -2  231.58   14.00
   3  -4  -2  243.88   21.20
  -3   4   2  249.78   15.90
   2  -4  -2 2410.36   93.59
   2  -4  -2 2429.66   97.19
   2  -4  -2 2489.75   93.19
   2  -4  -2 2481.85  103.09
  -2   4   2 2459.35   94.69
  -2   4   2 2467.55   94.29
   1  -4  -2 2450.15   95.79
   1  -4  -2 2603.04  102.89
   1  -4  -2 2463.85   93.69
  -1   4   2 2528.25   96.99
   0  -4  -2   47.20    4.00
   0  -4  -2   47.50    7.60
   0   4   2   43.60    4.20
  -1  -4  -2 2233.48   90.79
  -2  -4  -2 1363.26   51.99
  -2  -4  -2 1402.16   60.39
   2   4   2 1358.66   54.89
  -3  -4  -2  668.33   28.70
  -3  -4  -2  750.82   42.10
   3   4   2  695.53   28.00
   3   4   2  659.33   30.70
   3   4   2  668.83   31.30
  -4  -4  -2    3.20    3.50
   4   4   2   14.50    5.10
   4   4   2    7.20    2.10
  -5  -4  -2  402.36   48.30
  -5  -4  -2  428.56   21.40
   5   4   2  400.16   23.70
   6   4   2  179.78   13.30
   5  -5  -2   32.00    6.50
  -5   5   2   35.30    7.30
   4  -5  -2   86.29    8.90
   4  -5  -2   92.89    9.30
  -4   5   2   83.19   12.50
  -4   5   2  102.49   11.30
   3  -5  -2  114.99    9.60
   3  -5  -2   99.99   12.20
   3  -5  -2   88.69   14.90
   3  -5  -2  105.49    9.00
  -3   5   2   99.39    9.90
   2  -5  -2  433.76   30.50
   2  -5  -2  465.55   25.50
   2  -5  -2  441.16   21.70
  -2   5   2  471.75   25.00
   1  -5  -2  854.91   37.30
   1  -5  -2  939.51   52.09
   1  -5  -2  806.02   34.50
  -1   5   2  830.32   35.50
  -1   5   2  849.41   36.60
   0  -5  -2 2184.58   80.19
   0  -5  -2 1963.40   79.09
   0  -5  -2 2240.78   91.59
  -1  -5  -2 1170.58   54.79
   1   5   2 1145.89   47.40
  -2  -5  -2  941.21   47.50
  -2  -5  -2  948.11   37.50
   2   5   2  972.70   42.60
   2   5   2  962.40   39.50
   2   5   2  974.00   41.30
  -3  -5  -2  137.99    8.90
  -3  -5  -2  155.08   18.50
   3   5   2  139.29   11.20
  -4  -5  -2  235.38   13.90
  -4  -5  -2  253.67   27.00
   4   5   2  226.68   16.50
  -5  -5  -2  243.38   14.80
   5   5   2  245.48   17.20
   5  -6  -2   67.59    7.20
  -5   6   2   55.79    8.40
   4  -6  -2    9.60    5.40
   4  -6  -2    5.90    3.00
  -4   6   2    8.40    6.70
  -4   6   2   14.50    5.60
   3  -6  -2  537.55   26.60
   3  -6  -2  541.75   26.70
  -3   6   2  553.64   28.20
  -3   6   2  496.35   31.10
   2  -6  -2  282.87   20.70
   2  -6  -2  325.47   28.00
   2  -6  -2  332.27   17.70
   2  -6  -2  331.87   17.90
  -2   6   2  346.47   19.10
  -2   6   2  331.97   18.30
   1  -6  -2 1683.43   81.29
   1  -6  -2 1944.21   70.79
   1  -6  -2 1612.54   69.69
  -1   6   2 1697.73   67.39
  -1   6   2 1680.83   69.29
   0  -6  -2    3.10    2.10
   0  -6  -2   -1.90    3.90
   0   6   2    0.30    3.00
   0   6   2    2.80    2.40
   0   6   2    7.10    2.20
  -1  -6  -2  401.46   27.90
  -1  -6  -2  356.36   16.60
   1   6   2  400.66   23.00
   1   6   2  364.66   19.90
  -2  -6  -2 1098.49   56.99
   2   6   2 1178.28   48.70
   2   6   2 1087.69   49.80
  -3  -6  -2  821.82   36.30
  -3  -6  -2 1040.70   63.29
   3   6   2  839.92   40.80
  -4  -6  -2  261.57   41.30
  -4  -6  -2  198.78   12.90
   4   6   2  206.68   16.00
   5   6   2  174.48   14.10
   4  -7  -2  148.09   11.70
   4  -7  -2  151.88   11.90
  -4   7   2  155.38   13.00
  -4   7   2  144.69   15.70
   3  -7  -2   11.20    4.60
   3  -7  -2   10.70    4.60
  -3   7   2    4.00    6.30
  -3   7   2   18.60    5.60
   2  -7  -2  363.26   20.10
   2  -7  -2  364.06   33.60
  -2   7   2  367.46   25.90
  -2   7   2  365.16   21.50
   1  -7  -2    5.30    4.40
   1  -7  -2   12.80    7.80
   1  -7  -2   23.30    4.70
  -1   7   2   19.30    6.70
  -1   7   2   17.40    3.80
  -1   7   2   19.60    5.20
   0  -7  -2   48.10   12.70
   0  -7  -2   50.59    5.60
   0   7   2   50.69    7.80
   0   7   2   55.59   10.70
  -1  -7  -2  357.96   29.90
  -1  -7  -2  333.67   16.50
   1   7   2  360.06   23.40
   1   7   2  369.46   20.60
  -2  -7  -2  950.00   66.69
  -2  -7  -2  887.51   36.40
   2   7   2  825.62   42.40
   2   7   2  923.71   41.90
  -3  -7  -2  286.77   28.60
   3   7   2  295.77   19.20
   4   7   2   37.00    9.30
  -5  -7  -2   69.99   10.60
   5   7   2   46.30    7.90
   4  -8  -2  482.55   23.40
   4  -8  -2  505.85   25.00
  -4   8   2  466.75   23.50
  -4   8   2  445.86   28.50
   3  -8  -2  166.38   13.30
  -3   8   2  154.48   16.60
  -3   8   2  153.28   12.20
   2  -8  -2  719.33   32.70
  -2   8   2  648.74   30.40
  -2   8   2  665.93   33.90
  -2   8   2  712.63   40.10
   1  -8  -2  273.47   16.10
  -1   8   2  252.67   21.70
  -1   8   2  276.97   18.20
   0  -8  -2   16.10    4.50
   0   8   2   20.90    7.10
   0   8   2   15.80    5.90
  -1  -8  -2  187.88   12.80
   1   8   2  209.58   18.40
   1   8   2  178.18   14.40
  -2  -8  -2 1066.69   42.20
   2   8   2  960.10   48.50
   2   8   2 1064.69   47.80
  -3  -8  -2  114.79    9.10
   3   8   2  124.69   12.30
  -4  -8  -2    9.50    3.60
   4   8   2   20.70    6.20
   3  -9  -2   16.40    5.00
  -3   9   2   20.80    8.30
   1  -9  -2  102.59   10.00
  -1   9   2  101.49   11.00
  -1   9   2  118.19   16.00
   0  -9  -2  305.37   17.00
   0   9   2  277.17   19.10
   0   9   2  296.27   24.10
  -1  -9  -2   59.19    6.90
   1   9   2   40.60   10.20
   1   9   2   54.89    9.60
  -2  -9  -2  188.58   13.20
   2   9   2  205.28   15.90
  -3  -9  -2  196.78   12.10
   3   9   2  221.18   16.10
   2 -10  -2  225.58   14.70
  -2  10   2  236.18   20.00
   1 -10  -2  320.17   18.20
  -1  10   2  297.37   19.60
  -1  10   2  347.77   25.70
   0 -10  -2   37.50    6.40
   0  10   2   33.40    7.80
   0  10   2   39.30    9.90
  -1 -10  -2  329.57   17.70
   1  10   2  335.47   24.10
   1  10   2  343.07   21.00
  -2 -10  -2   48.30    8.70
   2  10   2   54.69    8.70
   0 -11  -2   17.30    4.60
   0  11   2   22.60    8.10
   0  11   2   21.50    5.80
   2  10  -3  103.49    9.80
   1  10  -3    2.40    7.20
   1  10  -3   10.10    4.60
   0  10  -3  345.47   25.00
   0  10  -3  324.17   19.60
  -1  10  -3   65.29   12.60
   1 -10   3   92.79    8.30
  -2  10  -3  268.27   20.80
   2 -10   3  233.88   16.20
   3   9  -3  514.45   26.50
   2   9  -3  205.78   15.00
   2   9  -3  158.08   18.10
   0   9  -3  749.33   36.10
   0   9  -3  734.23   42.50
  -1   9  -3   12.60    7.00
  -1   9  -3   18.10    6.20
   1  -9   3   26.30    8.10
  -2   9  -3   76.09   13.40
   2  -9   3   69.49    8.50
  -3   9  -3   41.80    9.70
   3  -9   3   58.89    7.60
   4   8  -3   13.90    5.00
   3   8  -3  283.97   18.30
   2   8  -3  599.74   34.50
   2   8  -3  618.74   31.50
   1   8  -3  914.91   42.40
   1   8  -3  898.01   47.60
   0   8  -3  789.52   37.50
   0   8  -3  830.82   44.40
   0  -8   3  729.63   32.50
  -1   8  -3  196.28   19.00
  -1   8  -3  180.68   14.80
  -1   8  -3  180.08   14.30
   1  -8   3  175.18   12.10
  -2   8  -3  489.35   26.20
  -2   8  -3  481.25   32.60
   2  -8   3  530.55   25.80
  -3   8  -3  866.21   46.40
   3  -8   3  917.01   40.20
  -4   8  -3  337.37   21.90
   4  -8   3  312.77   17.50
   4   7  -3  472.25   25.70
  -4  -7   3  492.35   21.80
   3   7  -3  550.34   28.70
   3   7  -3  536.65   27.40
   2   7  -3 3532.65  143.29
   2   7  -3 3468.35  136.09
   2   7  -3 3638.44  137.59
   1   7  -3  472.75   24.80
   1   7  -3  435.26   23.00
   1   7  -3  475.95   29.50
  -1  -7   3  439.96   45.00
   0   7  -3  253.67   15.90
   0   7  -3  269.47   16.80
   0   7  -3  259.67   21.30
   0  -7   3  263.67   26.00
  -1   7  -3  764.42   35.10
  -1   7  -3  865.31   47.40
  -1   7  -3  774.02   36.00
   1  -7   3  644.74   38.30
   1  -7   3  811.52   33.50
  -2   7  -3 2363.56   95.89
  -2   7  -3 2321.57   97.49
  -2   7  -3 1996.70   85.49
   2  -7   3 2300.77   88.09
  -3   7  -3  774.12   34.90
  -3   7  -3  824.22   43.60
   3  -7   3  801.82   36.70
  -4   7  -3   91.89   13.80
  -4   7  -3  124.99    9.70
   4  -7   3  115.59   10.50
   5   6  -3   83.49    9.00
   4   6  -3  543.15   28.30
   4   6  -3  561.64   29.00
   3   6  -3  205.58   14.40
   3   6  -3  208.08   14.70
  -3  -6   3  156.68   28.60
   2   6  -3  429.46   22.50
   2   6  -3  394.76   25.00
   2   6  -3  417.26   21.90
  -2  -6   3  398.46   28.90
   1   6  -3  695.33   32.30
   1   6  -3  714.73   31.80
   1   6  -3  712.63   36.90
  -1  -6   3  679.23   31.80
  -1  -6   3  708.03   40.10
   0   6  -3 4228.68  156.38
   0   6  -3 4108.39  162.58
   0   6  -3 4103.29  156.88
   0  -6   3 4191.28  170.48
  -1   6  -3  288.47   16.70
  -1   6  -3  279.37   20.70
  -1   6  -3  297.47   16.80
   1  -6   3  285.57   19.10
   1  -6   3  280.97   18.00
   1  -6   3  277.87   25.80
  -2   6  -3    9.60    5.80
  -2   6  -3   13.40    4.10
  -2   6  -3   21.50    5.10
   2  -6   3   17.20    8.80
   2  -6   3   13.70    4.30
   2  -6   3    8.90    5.10
  -3   6  -3 1396.96   64.09
  -3   6  -3 1380.56   57.89
   3  -6   3 1382.66   57.59
  -4   6  -3   50.69    8.40
  -4   6  -3   49.70   10.70
   4  -6   3   44.00    6.80
   4  -6   3   45.90    7.70
  -5   6  -3  548.05   27.20
   5  -6   3  557.04   27.00
   5   5  -3  596.04   30.30
  -5  -5   3  609.44   27.00
   4   5  -3  631.34   31.10
   4   5  -3  642.34   31.70
  -4  -5   3  598.84   26.80
  -4  -5   3  568.24   43.60
   3   5  -3   49.90    8.20
   3   5  -3   41.00    7.30
  -3  -5   3   47.10    5.00
  -3  -5   3   46.40   11.30
   2   5  -3  484.65   26.00
   2   5  -3  480.65   24.00
   2   5  -3  466.55   26.60
  -2  -5   3  467.55   23.40
  -2  -5   3  541.35   31.20
   1   5  -3  473.05   27.00
   1   5  -3  513.55   26.20
   1   5  -3  515.55   24.00
   1   5  -3  472.85   23.70
  -1  -5   3  542.45   24.70
  -1  -5   3  520.85   29.60
   0   5  -3 3833.92  143.39
   0   5  -3 3783.02  143.59
   0   5  -3 3887.41  148.49
   0  -5   3 3732.03  153.28
   0  -5   3 3907.71  145.29
  -1   5  -3 1823.42   69.89
  -1   5  -3 1761.22   66.69
   1  -5   3 1707.43   67.09
  -2   5  -3    1.90    2.40
  -2   5  -3   -3.00    3.40
  -2   5  -3    1.70    2.20
   2  -5   3    2.10    2.80
   2  -5   3    2.20    3.40
  -3   5  -3  208.98   16.90
  -3   5  -3  207.88   14.10
   3  -5   3  179.18   22.60
   3  -5   3  200.88   13.30
   3  -5   3  197.98   12.90
  -4   5  -3  321.27   19.70
  -4   5  -3  278.37   21.10
   4  -5   3  306.47   17.90
   4  -5   3  302.37   17.80
  -5   5  -3   20.20    5.80
   5  -5   3   14.20    5.90
   5  -5   3   30.60    5.90
   5   4  -3  530.35   33.00
  -5  -4   3  538.45   26.50
   4   4  -3  315.17   18.80
   4   4  -3  301.17   19.20
  -4  -4   3  292.47   30.00
  -4  -4   3  286.17   15.50
   3   4  -3  379.56   21.20
   3   4  -3  398.16   20.80
   3   4  -3  387.96   22.50
  -3  -4   3  424.86   29.80
   2   4  -3  536.95   25.30
   2   4  -3  546.35   24.90
   2   4  -3  531.65   28.70
   2   4  -3  526.35   26.60
  -2  -4   3  573.64   31.00
  -2  -4   3  523.95   24.10
   1   4  -3  221.28   13.70
  -1  -4   3  219.08   13.10
  -1  -4   3  218.88   15.60
   0   4  -3  773.82   32.50
   0   4  -3  683.03   29.80
   0   4  -3  670.33   29.60
   0  -4   3  685.43   31.00
  -1   4  -3 1681.83   68.69
   1  -4   3 1612.44   63.09
   1  -4   3 1698.63   67.19
  -2   4  -3 1405.26   55.79
  -2   4  -3 1407.46   59.59
   2  -4   3 1355.96   54.69
  -3   4  -3  951.80   41.90
  -3   4  -3  901.11   53.09
  -3   4  -3  946.71   44.10
   3  -4   3 1007.00   40.50
   3  -4   3  944.31   46.40
   3  -4   3  901.21   40.50
  -4   4  -3  493.95   40.00
  -4   4  -3  528.15   28.50
   4  -4   3  553.94   26.70
   4  -4   3  561.04   26.40
  -5   4  -3   47.50    8.60
   5  -4   3   53.89    8.00
  -6  -3   3  136.09   10.10
   5   3  -3   22.70    6.00
  -5  -3   3   19.30    5.20
   4   3  -3  703.33   36.60
   4   3  -3  725.73   35.70
  -4  -3   3  784.52   36.00
   3   3  -3  819.12   36.30
   3   3  -3  821.72   37.60
  -3  -3   3  791.52   44.10
  -3  -3   3  796.52   32.30
   2   3  -3  324.07   17.10
   2   3  -3  329.87   18.00
  -2  -3   3  361.66   21.80
   1   3  -3 2218.48   83.09
  -1  -3   3 2087.39   83.79
   0  -3   3 8205.28  309.67
   0  -3   3 8275.17  306.37
  -1   3  -3 2175.28   84.79
   1  -3   3 2043.80   81.59
  -2   3  -3  649.34   36.20
  -2   3  -3  691.23   29.50
   2  -3   3  665.13   28.30
   2  -3   3  685.93   31.90
  -3   3  -3  476.35   23.80
  -3   3  -3  448.16   24.40
  -3   3  -3  432.56   31.70
   3  -3   3  474.15   22.20
   3  -3   3  489.05   26.70
  -4   3  -3  128.39   11.90
  -4   3  -3   97.99   18.10
   4  -3   3  110.19    9.10
   4  -3   3  120.39    9.70
  -5   3  -3  117.79   22.70
  -5   3  -3  141.49   13.70
   5  -3   3  150.18   11.50
  -6   3  -3   55.99    8.60
   6  -3   3   62.29    6.80
   6   2  -3   16.20    5.10
  -6  -2   3   13.10    4.10
   5   2  -3   33.80    4.10
   5   2  -3   38.00    7.30
  -5  -2   3   37.90    6.40
  -5  -2   3   18.90   21.40
   4   2  -3  395.26   23.90
   4   2  -3  419.96   18.10
   4   2  -3  381.46   22.30
  -4  -2   3  384.56   32.10
  -4  -2   3  374.96   19.00
   3   2  -3  664.93   26.80
   3   2  -3  628.44   30.40
   3   2  -3  706.53   32.30
  -3  -2   3  682.33   38.50
  -3  -2   3  645.64   27.30
   2   2  -3 2206.08   82.29
  -2  -2   3 2123.49   82.89
  -2  -2   3 2009.00   85.49
   1   2  -3 6442.76  237.78
   1   2  -3 6446.46  237.68
  -1   2  -3 7780.12  307.97
  -2   2  -3 3033.10  120.49
   2  -2   3 3007.70  115.39
  -3   2  -3  126.09   15.30
  -3   2  -3  132.59   10.00
   3  -2   3  114.89    8.40
   3  -2   3  118.29    8.50
  -4   2  -3  185.68   22.20
  -4   2  -3  167.88   10.90
  -4   2  -3  180.28   14.00
   4  -2   3  171.88   11.50
   4  -2   3  184.68   16.90
   4  -2   3  170.48   11.60
  -5   2  -3    6.60    9.00
  -5   2  -3   -5.70    7.00
  -5   2  -3   17.00    6.70
   5  -2   3   21.70    4.70
   5  -2   3   -7.40    5.90
  -6   2  -3  250.67   17.10
   6  -2   3  236.98   14.40
   6   1  -3   41.10    7.00
  -6  -1   3   45.30    6.30
   5   1  -3 2014.70   84.39
   5   1  -3 1955.10   75.29
  -5  -1   3 1979.20   76.89
  -5  -1   3 1828.52   98.99
   4   1  -3   74.29    9.90
   4   1  -3   77.79    9.20
   4   1  -3   71.29    6.10
  -4  -1   3   67.79   14.90
  -4  -1   3   74.19    7.00
   3   1  -3 6047.29  225.38
   3   1  -3 6261.37  222.28
  -3  -1   3 6089.69  235.58
  -3  -1   3 5929.31  221.98
   2   1  -3  391.76   19.20
  -2  -1   3  397.96   22.40
  -2  -1   3  369.46   19.50
   1   1  -3 6241.98  248.78
  -1  -1   3 6594.64  253.67
   0   1  -3 3187.88  127.69
   0  -1   3 3270.37  129.39
  -1   1  -3 3577.44  132.89
  -2   1  -3  120.09   11.20
   2  -1   3   91.99   11.00
   2  -1   3  107.39    8.00
  -3   1  -3  286.57   16.40
  -3   1  -3  288.57   22.60
  -3   1  -3  276.87   13.70
   3  -1   3  289.77   14.30
   3  -1   3  283.17   14.50
   3  -1   3  282.27   17.40
  -4   1  -3   55.49    6.30
  -4   1  -3   60.59    9.50
  -4   1  -3   43.60   11.70
   4  -1   3   48.60    5.50
   4  -1   3   45.30    8.80
  -5   1  -3  198.08   16.00
  -5   1  -3  187.68   24.80
   5  -1   3  183.28   12.80
  -6   1  -3  117.09   12.00
   6  -1   3  106.59    9.00
   6   0  -3  269.27   14.00
  -6   0   3  295.47   15.70
   5   0  -3  245.08   21.00
   5   0  -3  278.77   15.20
  -5   0   3  281.27   16.40
  -5   0   3  263.87   19.00
  -5   0   3  278.07   31.20
   4   0  -3 1570.74   63.29
   4   0  -3 1639.44   69.79
   4   0  -3 1641.44   67.09
  -4   0   3 1581.94   80.99
  -4   0   3 1641.94   71.79
  -4   0   3 1579.34   63.19
   3   0  -3 2264.17   84.29
   3   0  -3 2123.49   79.29
   3   0  -3 2089.49   81.79
  -3   0   3 2061.69   78.79
  -3   0   3 2026.30   91.09
  -3   0   3 1954.90   82.09
   2   0  -3 7383.56  269.57
  -2   0  -3  609.74   30.70
  -2   0  -3  618.14   27.20
   2   0   3  609.54   26.30
   2   0   3  600.14   31.40
  -3   0  -3  631.74   30.30
  -3   0  -3  684.03   37.80
  -3   0  -3  684.23   27.80
   3   0   3  666.13   28.30
   3   0   3  666.83   31.30
  -4   0  -3  419.36   32.70
  -4   0  -3  419.26   23.40
  -4   0  -3  416.56   20.10
   4   0   3  431.66   25.70
   4   0   3  409.96   22.70
   4   0   3  411.16   20.50
  -5   0  -3  678.53   30.70
  -5   0  -3  657.43   48.80
  -5   0  -3  656.83   34.50
   5   0   3  684.63   31.20
  -6   0  -3   87.09   11.60
  -6   0  -3   84.69    8.50
   6   0   3   76.49    7.50
   6  -1  -3  131.99    9.00
  -6   1   3  125.49   16.40
  -6   1   3  132.39   10.00
   5  -1  -3  620.14   36.40
   5  -1  -3  669.93   30.30
  -5   1   3  693.03   35.10
  -5   1   3  616.54   49.10
  -5   1   3  682.63   30.40
   4  -1  -3  256.97   14.50
   4  -1  -3  255.57   18.70
  -4   1   3  243.08   25.40
  -4   1   3  270.47   17.60
  -4   1   3  256.47   14.50
   3  -1  -3 2396.76   87.79
   3  -1  -3 2368.66   90.99
   3  -1  -3 2442.86   93.99
   3  -1  -3 2386.76   89.09
   3  -1  -3 2084.39   88.09
  -3   1   3 2445.06  102.69
  -3   1   3 2357.96   88.29
  -3   1   3 2280.77   91.69
   2  -1  -3 1894.21   70.89
  -2   1   3 1773.52   76.89
  -2  -1  -3 2271.87   89.29
  -2  -1  -3 2136.99   83.79
   2   1   3 2289.97   89.39
   2   1   3 2185.18   83.49
  -3  -1  -3  753.22   32.00
  -3  -1  -3  769.92   41.60
   3   1   3  798.62   32.80
   3   1   3  798.72   32.60
   3   1   3  802.52   35.00
   3   1   3  800.92   40.50
  -4  -1  -3   69.49   13.40
  -4  -1  -3   63.89    6.70
   4   1   3   68.49    6.30
  -5  -1  -3  689.03   36.00
  -5  -1  -3  683.43   50.09
  -5  -1  -3  780.02   32.80
   5   1   3  706.03   32.30
  -6  -1  -3   27.50    7.40
   6   1   3   15.60    3.80
   6   1   3   16.70    5.00
   6  -2  -3  425.56   21.30
  -6   2   3  491.15   26.90
   5  -2  -3  722.43   32.60
   5  -2  -3  703.93   39.50
  -5   2   3  739.93   31.90
  -5   2   3  675.53   36.30
  -5   2   3  651.23   52.89
   4  -2  -3   21.30    4.70
   4  -2  -3   22.00    6.80
  -4   2   3   27.90   10.00
  -4   2   3   18.80    5.70
  -4   2   3   22.20    4.50
   3  -2  -3 1008.10   43.50
   3  -2  -3 1118.79   48.50
  -3   2   3  994.50   54.89
  -3   2   3 1046.70   42.10
  -3   2   3 1101.69   45.90
   2  -2  -3 4611.44  170.18
   2  -2  -3 4514.45  166.78
   2  -2  -3 4916.81  171.38
  -2   2   3 4235.98  167.98
  -2   2   3 4452.05  176.18
  -2   2   3 4434.26  165.58
  -2  -2  -3 1860.61   72.89
  -2  -2  -3 1736.33   64.99
  -2  -2  -3 1633.64   64.99
  -2  -2  -3 1574.74   70.59
   2   2   3 1729.03   64.79
   2   2   3 1841.72   71.79
   2   2   3 1732.03   65.19
  -3  -2  -3 2631.34  105.69
  -3  -2  -3 2751.72  104.99
  -3  -2  -3 2600.74  102.29
  -3  -2  -3 2865.01  115.19
   3   2   3 2855.31  110.99
   3   2   3 2764.12  102.89
  -4  -2  -3   73.89   14.30
  -4  -2  -3   61.89    6.70
   4   2   3   74.59    6.70
  -5  -2  -3  161.08   11.60
  -5  -2  -3  148.39   14.00
  -5  -2  -3  122.79   21.40
   5   2   3  156.08   10.40
   6   2   3  494.75   22.70
   6   2   3  541.45   26.80
  -6   3   3  228.08   19.20
   5  -3  -3  132.79   10.60
   5  -3  -3  113.69   14.90
  -5   3   3  114.99   22.30
  -5   3   3  116.49   12.40
  -5   3   3  138.49   11.20
   4  -3  -3  122.79   10.00
  -4   3   3  125.59    9.50
  -4   3   3  123.89   26.10
  -4   3   3  140.09   12.60
   3  -3  -3 1249.07   50.09
   3  -3  -3 1270.37   57.69
   3  -3  -3 1282.97   51.19
  -3   3   3 1121.69   63.59
  -3   3   3 1275.77   49.40
  -3   3   3 1313.67   53.59
   2  -3  -3 6987.70  246.88
  -2   3   3 6503.35  257.87
  -2   3   3 6553.54  244.98
  -2   3   3 6896.41  248.28
   1  -3  -3 1604.74   62.29
   1  -3  -3 1584.14   70.19
   0  -3  -3 1554.24   64.19
   0   3   3 1557.14   65.39
  -1  -3  -3 1243.48   54.09
   1   3   3 1298.07   55.29
  -2  -3  -3 4063.59  156.98
  -2  -3  -3 3771.32  144.29
   2   3   3 4158.08  153.58
   2   3   3 3785.92  146.19
   3   3   3   50.29    5.70
  -4  -3  -3  539.15   38.30
  -4  -3  -3  501.15   24.30
   4   3   3  550.34   27.20
   4   3   3  536.35   24.00
  -5  -3  -3  280.07   16.90
  -5  -3  -3  367.76   46.80
   5   3   3  275.37   15.10
   5   3   3  296.07   18.90
   6   3   3   74.59    8.60
   5  -4  -3  141.49   20.50
   5  -4  -3  112.79    9.90
  -5   4   3  113.49   12.50
   4  -4  -3  113.19    9.70
   4  -4  -3   78.59    9.80
  -4   4   3  101.99   12.60
  -4   4   3  117.49   11.90
   3  -4  -3  221.88   13.40
   3  -4  -3  210.08   19.80
   3  -4  -3  238.28   13.90
  -3   4   3  246.98   15.60
  -3   4   3  215.98   14.30
   2  -4  -3 1256.57   52.09
   2  -4  -3 1356.26   61.59
   2  -4  -3 1307.57   52.79
   2  -4  -3 1302.27   56.39
  -2   4   3 1354.46   54.09
  -2   4   3 1342.27   53.49
   1  -4  -3  124.19   12.50
   1  -4  -3  107.49    7.20
   1  -4  -3  113.79    8.50
  -1   4   3  109.29   10.50
  -1   4   3  101.89    7.70
   0  -4  -3   20.50    5.70
   0   4   3   22.20    3.10
   0   4   3   29.60    3.30
   0   4   3   23.40    3.90
  -1  -4  -3  137.09   12.60
   1   4   3  128.59    8.30
   1   4   3  132.99    7.30
  -2  -4  -3 2662.33  106.59
  -2  -4  -3 2484.85   96.39
   2   4   3 2623.34   96.49
   2   4   3 2646.34   99.29
  -3  -4  -3  247.68   22.20
  -3  -4  -3  239.18   13.90
   3   4   3  253.37   12.40
   3   4   3  251.07   15.10
  -4  -4  -3  312.27   16.80
   4   4   3  320.87   19.10
   4   4   3  316.47   15.40
  -5  -4  -3  101.99    9.40
   5   4   3  105.59   11.00
  -6  -4  -3  126.99    9.50
   6   4   3  111.39   10.20
   5  -5  -3   65.79    7.50
  -5   5   3   58.89    9.50
   4  -5  -3  110.69   10.30
   4  -5  -3  104.49    9.30
  -4   5   3   87.29   13.20
  -4   5   3  136.99   12.60
   3  -5  -3  327.17   17.80
   3  -5  -3  303.07   17.30
   3  -5  -3  300.57   26.80
  -3   5   3  312.37   19.20
   2  -5  -3  482.55   31.90
   2  -5  -3  501.05   22.60
   2  -5  -3  453.25   22.60
   2  -5  -3  434.86   25.60
  -2   5   3  468.15   23.60
  -2   5   3  486.65   23.80
   1  -5  -3  310.67   17.40
   1  -5  -3  307.27   15.60
   1  -5  -3  335.37   23.90
  -1   5   3  312.97   16.90
  -1   5   3  345.27   16.90
   0  -5  -3  185.58    9.70
   0  -5  -3  195.68   17.10
   0   5   3  191.28   10.50
   0   5   3  184.18   11.50
  -1  -5  -3  537.75   31.30
   1   5   3  489.85   23.70
  -2  -5  -3  170.08    9.30
  -2  -5  -3  170.08   16.50
   2   5   3  161.28    8.40
   2   5   3  169.48   12.30
  -3  -5  -3   70.09    6.40
  -3  -5  -3   76.79   13.40
   3   5   3   72.49    7.50
  -4  -5  -3   31.00    5.50
  -4  -5  -3   40.90   13.60
   4   5   3   38.80    7.20
   5   5   3   87.99   10.30
   5  -6  -3  385.66   20.30
  -5   6   3  386.36   22.40
   4  -6  -3  502.05   25.50
   4  -6  -3  522.15   26.50
  -4   6   3  502.85   30.60
  -4   6   3  550.94   29.30
   3  -6  -3  112.49    9.90
   3  -6  -3  113.79   10.50
  -3   6   3  128.09   11.70
  -3   6   3  112.59   14.20
   2  -6  -3   34.60   11.00
   2  -6  -3   26.50    6.40
   2  -6  -3   39.80    6.10
  -2   6   3   39.40    7.00
  -2   6   3   57.69    6.70
   1  -6  -3 1547.05   75.19
   1  -6  -3 1561.44   60.29
   1  -6  -3 1472.15   62.69
  -1   6   3 1524.45   62.49
  -1   6   3 1527.25   63.89
   0  -6  -3   23.80    3.90
   0  -6  -3   24.40    8.50
   0   6   3   26.30    4.10
  -1  -6  -3 2346.47  102.49
  -1  -6  -3 2276.47   86.99
   1   6   3 2312.77   85.99
   1   6   3 2356.96   90.99
   1   6   3 2321.17   94.09
  -2  -6  -3  297.27   25.10
   2   6   3  302.17   19.70
   2   6   3  317.87   18.40
  -3  -6  -3  576.94   26.10
   3   6   3  586.64   29.90
  -4  -6  -3  130.59   33.60
   4   6   3  156.88   13.40
  -5  -6  -3   25.40    5.40
   5   6   3   23.20    5.90
   4  -7  -3  702.03   31.90
   4  -7  -3  672.13   32.60
  -4   7   3  682.33   36.90
   3  -7  -3  896.61   40.50
   3  -7  -3  876.81   40.70
  -3   7   3  961.40   42.40
  -3   7   3  881.61   46.70
   2  -7  -3  412.36   21.80
  -2   7   3  392.16   27.60
  -2   7   3  426.06   22.40
  -2   7   3  423.56   23.60
   1  -7  -3  379.36   19.50
   1  -7  -3  376.06   32.60
  -1   7   3  392.16   19.50
  -1   7   3  381.86   21.50
   0  -7  -3    0.20    2.60
   0   7   3   -1.10    4.20
   0   7   3    0.30    3.20
  -1  -7  -3  417.06   39.40
  -1  -7  -3  368.26   18.10
   1   7   3  389.76   21.80
   1   7   3  381.86   24.60
  -2  -7  -3  102.09   18.20
  -2  -7  -3  117.79    8.10
   2   7   3   99.99   13.50
   2   7   3  101.39   10.40
  -3  -7  -3   41.40   11.70
  -3  -7  -3   56.69    6.40
   3   7   3   57.59    9.40
  -4  -7  -3  401.86   20.00
   4   7   3  404.56   26.70
   5   7   3   46.40    7.40
   4  -8  -3  691.53   31.00
   4  -8  -3  660.13   31.60
  -4   8   3  707.23   32.00
   3  -8  -3  189.18   13.80
  -3   8   3  199.08   21.90
  -3   8   3  204.78   13.80
   2  -8  -3 1368.86   56.99
  -2   8   3 1246.58   63.99
  -2   8   3 1361.36   55.79
  -2   8   3 1432.06   59.49
   1  -8  -3  365.46   19.80
  -1   8   3  389.26   22.30
  -1   8   3  372.16   26.70
  -1   8   3  349.37   17.40
   0  -8  -3  217.88   13.20
   0   8   3  211.68   19.00
   0   8   3  219.68   15.80
  -1  -8  -3   83.99    7.50
   1   8   3   93.39   14.60
   1   8   3   80.59    9.90
  -2  -8  -3   60.49    6.40
   2   8   3   51.49    8.90
   2   8   3   46.90   10.20
  -3  -8  -3  187.68   12.20
   3   8   3  203.08   15.70
  -4  -8  -3  386.66   19.10
   4   8   3  388.06   22.80
  -3   9   3  180.78   10.30
   1  -9  -3  182.78   13.30
  -1   9   3  170.38   18.50
  -1   9   3  189.98   15.00
   0  -9  -3  452.75   23.10
   0   9   3  495.35   31.50
   0   9   3  438.86   25.80
  -1  -9  -3  212.08   13.30
   1   9   3  215.18   16.60
   1   9   3  207.38   19.50
  -2  -9  -3   22.80    7.20
   2   9   3   29.60    7.60
  -3  -9  -3   -0.60    2.80
   3   9   3    6.80    4.90
   2 -10  -3  453.25   23.10
  -2  10   3  453.65   29.40
   1 -10  -3  972.80   43.00
  -1  10   3 1000.10   45.30
  -1  10   3 1014.90   51.59
   0 -10  -3  481.45   23.90
   0  10   3  499.45   26.90
   0  10   3  453.25   31.00
  -1 -10  -3  870.41   37.40
   1  10   3  850.51   40.90
   1  10   3  886.31   44.90
  -2 -10  -3   90.89    8.10
   2  10   3  104.49   10.80
   0 -11  -3   10.30    4.30
   0  11   3    7.80    4.70
   0  11   3   15.20    7.30
   1  10  -4  180.18   19.30
   0  10  -4    7.20    6.70
   0  10  -4    6.40    4.30
   0 -10   4    0.60    4.10
  -1  10  -4   75.89   12.70
   3   9  -4   87.99    9.00
   2   9  -4  268.07   21.40
   2   9  -4  313.57   18.60
   1   9  -4  678.83   39.20
   1   9  -4  729.63   34.50
   0  -9   4  129.69   10.20
  -1   9  -4  456.85   31.20
  -1   9  -4  412.26   23.50
   1  -9   4  438.26   21.90
  -2   9  -4  490.65   31.50
   2  -9   4  482.85   24.20
  -3   9  -4  249.28   19.80
   3  -9   4  291.87   16.20
   3   8  -4   -0.50    3.90
   2   8  -4   38.60    9.60
   2   8  -4   38.00    7.40
   2   8  -4   47.30    8.30
   1   8  -4   18.40    8.20
   1   8  -4   18.40    5.70
   1   8  -4   29.80    7.10
   0   8  -4   54.69    8.40
   0   8  -4   49.50    8.80
   0   8  -4   57.39   12.10
   0  -8   4   67.59    7.00
  -1   8  -4  231.98   16.40
  -1   8  -4  264.17   22.70
  -1   8  -4  243.88   16.30
   1  -8   4  255.27   14.90
  -2   8  -4  479.95   25.90
  -2   8  -4  480.15   31.90
   2  -8   4  500.25   24.90
  -3   8  -4  112.59   12.10
  -3   8  -4  148.09   16.30
   3  -8   4  133.59   11.30
   4  -8   4  314.77   17.00
   4   7  -4   83.29    9.80
   4   7  -4   90.29    9.90
   3   7  -4  155.68   12.70
   3   7  -4  183.88   14.20
   2   7  -4 2552.94   99.49
   2   7  -4 2462.55   98.09
   2   7  -4 2471.95  103.59
   1   7  -4 1029.30   55.99
   1   7  -4 1080.89   46.00
   0   7  -4  143.09   11.80
   0   7  -4  146.49   16.90
   0   7  -4  129.39   11.20
   0  -7   4  127.29    8.60
  -1   7  -4 1298.27   62.89
  -1   7  -4 1386.46   59.09
  -1   7  -4 1333.67   55.89
   1  -7   4 1256.67   52.89
  -2   7  -4 3959.30  159.98
  -2   7  -4 4004.10  152.28
   2  -7   4 3940.51  150.08
  -3   7  -4  675.03   32.80
  -3   7  -4  650.43   37.70
  -3   7  -4  607.24   28.80
   3  -7   4  718.63   32.10
  -4   7  -4  434.46   21.70
  -4   7  -4  495.25   28.50
   4  -7   4  446.86   23.20
   5   6  -4  318.77   18.40
  -5  -6   4  323.07   15.80
   4   6  -4  763.32   37.20
   4   6  -4  795.12   43.60
  -4  -6   4  773.62   32.60
   3   6  -4  421.76   23.60
   3   6  -4  433.26   24.00
   2   6  -4  233.08   14.90
   2   6  -4  227.68   17.40
   2   6  -4  219.58   14.90
   2   6  -4  211.48   17.50
  -2  -6   4  205.68   19.80
   1   6  -4 1882.51   78.59
   1   6  -4 1824.42   72.29
   1   6  -4 1785.02   72.39
  -1  -6   4 1773.42   73.59
  -1  -6   4 1759.12   81.69
   0   6  -4  302.97   17.50
   0   6  -4  331.47   22.60
   0  -6   4  317.17   26.30
   0  -6   4  315.57   19.80
  -1   6  -4 1512.75   60.99
  -1   6  -4 1519.05   61.19
  -1   6  -4 1508.65   67.39
   1  -6   4 1443.06   75.79
   1  -6   4 1489.35   58.59
   1  -6   4 1422.06   64.59
  -2   6  -4  156.58   10.10
  -2   6  -4  160.48   15.90
   2  -6   4  148.39   15.20
   2  -6   4  161.88   11.40
  -3   6  -4  892.41   45.00
  -3   6  -4  856.41   38.20
   3  -6   4  831.42   38.40
  -4   6  -4  141.49   11.60
   4  -6   4  129.69   11.40
   4  -6   4  123.49   11.20
  -5   6  -4  115.49    9.90
   5  -6   4  126.59   10.20
   5   5  -4   33.60    6.70
  -5  -5   4   30.60    5.40
   4   5  -4 2145.49   86.89
   4   5  -4 2089.69   87.29
  -4  -5   4 2386.46  132.19
  -4  -5   4 2041.10   82.09
   3   5  -4  370.66   23.20
   3   5  -4  384.56   20.80
   3   5  -4  320.87   22.30
  -3  -5   4  365.46   29.10
  -3  -5   4  367.06   16.40
   2   5  -4  917.21   40.20
   2   5  -4  867.81   43.30
   2   5  -4  957.50   43.60
   2   5  -4  949.40   40.90
  -2  -5   4  960.00   47.00
  -2  -5   4  905.41   41.40
   1   5  -4   38.50    6.00
   1   5  -4   21.90    4.90
   1   5  -4   20.10    5.30
  -1  -5   4   27.20    5.20
  -1  -5   4   15.20    5.70
   0   5  -4  617.54   28.10
   0   5  -4  634.44   28.50
   0  -5   4  649.34   30.50
   0  -5   4  595.64   36.20
  -1   5  -4  162.38   11.20
  -1   5  -4  153.08    8.30
  -1   5  -4  164.58   10.80
  -1   5  -4  157.48   14.20
   1  -5   4  155.48    9.30
  -2   5  -4  309.87   16.30
  -2   5  -4  308.47   21.10
   2  -5   4  294.47   20.50
   2  -5   4  311.67   16.40
  -3   5  -4  133.69   14.20
  -3   5  -4  140.79   11.20
   3  -5   4  125.59   10.30
   3  -5   4  145.39   14.70
  -4   5  -4 1843.12   74.89
   4  -5   4 1729.83   72.79
   4  -5   4 1834.22   72.69
  -5   5  -4  214.78   15.10
   5  -5   4  172.38   12.90
   5  -5   4  193.58   13.20
   5   4  -4  501.05   26.20
  -5  -4   4  496.55   23.60
   4   4  -4  352.96   20.30
   4   4  -4  312.77   20.60
   4   4  -4  387.86   31.70
  -4  -4   4  310.07   30.60
  -4  -4   4  335.07   17.00
   3   4  -4  227.58   15.30
   3   4  -4  253.17   17.60
   3   4  -4  228.88   14.60
  -3  -4   4  242.48   22.00
   2   4  -4 1407.76   64.59
   2   4  -4 1500.95   61.69
   2   4  -4 1506.55   64.69
  -2  -4   4 1769.82   62.99
  -2  -4   4 1583.44   68.39
   1   4  -4 7002.50  276.57
   1   4  -4 8047.19  278.17
   1   4  -4 7660.13  281.67
   0   4  -4  128.49    8.70
   0   4  -4  139.69   11.90
   0   4  -4  142.49   11.00
   0  -4   4  138.79   10.40
  -1   4  -4 3228.48  124.59
  -1   4  -4 2932.61  119.49
  -1   4  -4 3298.97  118.39
   1  -4   4 3079.79  118.59
   1  -4   4 3426.56  123.69
  -2   4  -4 1494.95   65.19
   2  -4   4 1576.94   65.79
  -3   4  -4  354.66   22.60
  -3   4  -4  385.56   21.00
   3  -4   4  380.26   19.70
   3  -4   4  370.46   19.60
   3  -4   4  439.76   29.30
  -4   4  -4  106.29   10.80
   4  -4   4   88.59    8.60
   4  -4   4   91.09    9.40
   5  -4   4   96.79    9.30
   5   3  -4  412.36   24.00
  -5  -3   4  430.26   21.30
   4   3  -4   17.60    5.40
   4   3  -4   20.80    6.90
   4   3  -4   16.30    5.40
  -4  -3   4   15.20    3.60
  -4  -3   4   12.80    8.60
   3   3  -4  866.91   37.10
   3   3  -4  866.11   40.30
   3   3  -4  866.51   38.40
  -3  -3   4  840.92   46.40
  -3  -3   4  838.82   37.00
   2   3  -4 1608.04   65.89
   2   3  -4 1655.93   67.19
   2   3  -4 1643.54   68.89
   2   3  -4 1758.72   69.19
  -2  -3   4 1853.11   73.09
   1   3  -4 1129.29   49.60
   1   3  -4 1151.88   48.40
  -1  -3   4 1239.48   48.90
  -1   3  -4  551.34   22.40
  -1   3  -4  496.55   25.80
   1  -3   4  526.25   25.20
  -2   3  -4  638.14   30.40
  -2   3  -4  591.24   33.80
  -2   3  -4  648.54   27.80
   2  -3   4  622.64   26.70
   2  -3   4  612.94   30.20
  -3   3  -4  845.42   41.00
  -3   3  -4  926.11   40.20
  -3   3  -4  890.91   50.09
   3  -3   4  898.11   38.10
   3  -3   4  951.50   38.80
   3  -3   4  908.51   43.70
  -4   3  -4  674.13   34.50
   4  -3   4  712.93   31.80
   4  -3   4  733.93   32.80
  -5   3  -4  164.18   14.20
  -5   3  -4  143.59   24.50
   5  -3   4  170.78   12.30
  -6   3  -4   46.40    7.90
   6  -3   4   43.50    6.30
   6   2  -4   72.49    7.90
  -6  -2   4   70.19    7.20
   5   2  -4  262.47   16.80
  -5  -2   4  212.58   29.40
  -5  -2   4  239.58   14.80
   4   2  -4  209.58   10.80
   4   2  -4  200.28   19.90
   4   2  -4  224.28   17.50
  -4  -2   4  214.18   12.60
  -4  -2   4  200.08   23.40
   3   2  -4 1684.23   69.39
   3   2  -4 1667.33   69.19
   3   2  -4 1635.04   62.59
  -3  -2   4 1663.03   63.49
  -3  -2   4 1680.33   76.29
   2   2  -4 2365.16   93.59
  -2  -2   4 2462.05   97.09
   1   2  -4 3823.32  139.99
  -1  -2   4 3666.23  140.79
   0  -2   4   11.20    3.00
   0  -2   4   15.70    2.30
  -1   2  -4  239.58   13.70
   1  -2   4  213.88   12.90
  -2   2  -4  525.15   29.00
   2  -2   4  513.95   25.30
  -3   2  -4  608.34   30.40
  -3   2  -4  603.14   36.80
   3  -2   4  583.04   26.70
   3  -2   4  615.84   31.20
  -4   2  -4  577.74   41.60
  -4   2  -4  623.84   31.30
   4  -2   4  621.54   28.80
   4  -2   4  650.03   35.90
   4  -2   4  601.04   27.60
  -5   2  -4   28.70   13.70
  -5   2  -4   34.10    8.30
   5  -2   4    2.30   13.20
   5  -2   4   30.70    5.90
  -6   2  -4  118.89   11.50
   6  -2   4  114.39    9.20
   6   1  -4  122.49   10.50
  -6  -1   4  116.49    9.50
   5   1  -4  829.62   44.70
   5   1  -4  862.91   35.60
  -5  -1   4  872.41   37.60
   4   1  -4  508.55   26.10
   4   1  -4  460.05   21.40
   4   1  -4  475.05   27.70
  -4  -1   4  449.46   35.30
  -4  -1   4  472.35   22.30
   3   1  -4 1834.02   76.29
   3   1  -4 1931.11   71.29
  -3  -1   4 1870.61   71.29
  -3  -1   4 1878.91   83.89
   2   1  -4 1056.59   40.10
   2   1  -4 1039.70   43.90
  -2  -1   4 1034.60   47.00
   1   1  -4 3952.30  163.98
   0   1  -4 2494.15   93.19
   0  -1   4 2493.45   97.09
   1  -1   4 3940.61  152.38
  -2   1  -4  813.42   37.80
  -2   1  -4  745.33   32.70
   2  -1   4  784.42   32.10
   2  -1   4  763.12   33.70
  -3   1  -4 6058.99  228.98
  -3   1  -4 6220.68  242.48
  -3   1  -4 6255.07  232.68
   3  -1   4 6463.35  229.98
   3  -1   4 6355.46  230.48
  -4   1  -4  527.15   27.60
  -4   1  -4  507.55   37.00
  -4   1  -4  503.75   23.60
   4  -1   4  515.75   24.80
   4  -1   4  544.55   30.90
  -5   1  -4  300.67   20.00
  -5   1  -4  288.87   30.80
   5  -1   4  303.87   17.60
  -6   1  -4  134.79   12.70
   6  -1   4  150.08   10.70
   6   0  -4  285.87   14.40
  -6   0   4  347.27   17.10
   5   0  -4  153.18   10.40
   5   0  -4  148.29   16.60
  -5   0   4  146.19   14.90
  -5   0   4  164.38   11.90
  -5   0   4  188.58   26.10
   4   0  -4 1940.01   73.99
   4   0  -4 1934.01   77.89
   4   0  -4 1953.60   81.09
  -4   0   4 1777.62   91.29
  -4   0   4 1944.71   73.99
  -4   0   4 1823.82   78.29
   3   0  -4 1245.98   52.09
   3   0  -4 1223.08   49.60
   3   0  -4 1244.78   47.10
  -3   0   4 1116.79   57.79
  -3   0   4 1131.49   49.99
  -3   0   4 1153.98   46.50
   2   0  -4  493.65   20.40
   2   0  -4  476.25   21.80
  -2   0   4  465.35   19.80
  -2   0   4  494.15   26.70
   0   0  -4  686.83   41.00
  -2   0  -4 6007.80  215.08
   2   0   4 5610.24  221.48
  -3   0  -4 1773.72   78.49
  -3   0  -4 1742.33   67.09
  -3   0  -4 1749.62   70.29
   3   0   4 1758.62   67.89
   3   0   4 1763.52   71.09
  -4   0  -4 2335.77   91.69
  -4   0  -4 2528.15   96.69
  -4   0  -4 2393.76  109.59
   4   0   4 2335.37   94.49
   4   0   4 2401.66   92.89
   4   0   4 2446.76   99.39
  -5   0  -4  239.38   28.70
  -5   0  -4  289.87   19.60
   5   0   4  295.97   16.60
  -6   0  -4  357.26   21.40
  -6   0  -4  334.47   17.90
   6   0   4  338.67   18.10
   6  -1  -4  212.78   11.90
  -6   1   4  210.28   17.30
  -6   1   4  227.18   13.30
   5  -1  -4  734.93   40.00
   5  -1  -4  720.33   32.20
  -5   1   4  635.34   50.89
  -5   1   4  724.23   37.50
  -5   1   4  745.83   32.50
   4  -1  -4  106.29   12.20
   4  -1  -4   99.49    8.10
  -4   1   4  100.69    8.60
  -4   1   4   88.49   16.90
  -4   1   4  115.09   11.50
   3  -1  -4  401.76   21.10
   3  -1  -4  457.75   24.10
  -3   1   4  410.26   29.40
  -3   1   4  397.96   21.50
   2  -1  -4 5108.49  182.88
   2  -1  -4 4993.40  182.98
  -2   1   4 4709.33  189.08
  -2  -1  -4  432.36   24.10
  -2  -1  -4  411.06   20.00
   2   1   4  488.95   26.50
   2   1   4  445.66   19.70
  -3  -1  -4 3403.66  127.39
  -3  -1  -4 3417.56  123.99
  -3  -1  -4 3314.67  135.49
   3   1   4 3211.38  124.39
   3   1   4 3201.98  123.79
   3   1   4 3478.95  127.29
  -4  -1  -4  519.85   37.00
  -4  -1  -4  531.85   27.40
  -4  -1  -4  518.75   23.90
   4   1   4  507.15   24.20
  -5  -1  -4 1275.57   50.69
  -5  -1  -4 1159.88   70.59
  -5  -1  -4 1179.18   54.59
   5   1   4 1243.68   50.89
  -6  -1  -4   96.89   10.90
  -6  -1  -4   93.79    9.10
   6   1   4   87.19    9.20
   6   1   4   84.59    7.50
   6  -2  -4   25.70    4.30
  -6   2   4   11.40    5.60
  -6   2   4   25.50    6.40
   5  -2  -4  681.43   32.20
   5  -2  -4  647.24   38.60
  -5   2   4  868.21   70.69
  -5   2   4  711.63   31.80
  -5   2   4  698.63   36.70
   4  -2  -4  161.08   11.00
   4  -2  -4  161.28   15.30
  -4   2   4  143.69   10.40
  -4   2   4  153.18   21.00
  -4   2   4  141.89   12.70
   3  -2  -4 2267.27   86.99
   3  -2  -4 2176.98   83.59
  -3   2   4 2100.19   85.89
  -3   2   4 2119.79   97.49
   2  -2  -4  745.83   31.80
   2  -2  -4  832.72   36.00
  -2   2   4  743.33   39.90
  -2   2   4  761.92   33.40
   1  -2  -4  143.69   10.70
  -1   2   4  135.69   10.80
  -1   2   4  129.19    9.00
   2   2   4 9224.58  343.27
  -3  -2  -4  778.22   37.90
  -3  -2  -4  830.92   43.60
  -3  -2  -4  791.22   35.10
  -3  -2  -4  782.92   35.50
   3   2   4  830.72   33.50
  -4  -2  -4   97.69   14.00
  -4  -2  -4   95.29    8.30
  -4  -2  -4  109.79   16.60
   4   2   4  101.59    8.00
  -5  -2  -4   40.10   13.60
  -5  -2  -4   54.59    7.90
  -5  -2  -4   54.29   10.00
   5   2   4   56.09    6.30
   5   2   4   52.99    8.50
  -6  -2  -4  314.97   16.70
   6   2   4  293.87   15.40
   6   2   4  320.17   18.60
   6  -3  -4  363.16   18.30
  -6   3   4  384.26   21.90
   5  -3  -4   15.90    7.70
   5  -3  -4   15.00    3.90
  -5   3   4   30.30    5.90
  -5   3   4   20.40    6.90
   4  -3  -4  153.18   15.50
   4  -3  -4  147.79   11.00
  -4   3   4  145.69   10.50
  -4   3   4  153.18   13.50
  -4   3   4  148.99   30.10
   3  -3  -4   23.30    4.80
   3  -3  -4   16.30    6.50
   3  -3  -4   16.30    3.70
  -3   3   4   16.00    7.80
   2  -3  -4 4506.15  164.98
   2  -3  -4 4706.53  172.88
   2  -3  -4 4392.76  165.38
  -2   3   4 4263.77  166.78
   1  -3  -4  611.64   29.40
  -1   3   4  506.75   24.10
  -1   3   4  520.35   24.80
   0   3   4 1637.84   59.09
   0   3   4 1483.95   66.19
  -1  -3  -4 1596.54   66.39
   1   3   4 1529.55   66.89
  -2  -3  -4 5867.91  224.88
  -2  -3  -4 6062.29  215.28
   2   3   4 5784.22  216.78
  -3  -3  -4 1800.82   81.89
  -3  -3  -4 1986.10   84.99
  -3  -3  -4 1852.41   71.29
   3   3   4 1839.72   71.49
   3   3   4 1840.02   73.39
  -4  -3  -4  564.64   26.60
   4   3   4  607.14   29.10
   4   3   4  605.24   26.70
  -5  -3  -4   21.30    5.40
  -5  -3  -4   33.00   22.20
   5   3   4   39.00    7.50
   5   3   4   36.30    5.70
  -6  -3  -4  137.89   10.30
   6   3   4  126.19   11.00
   5  -4  -4   81.19   13.50
  -5   4   4   93.39   12.90
   4  -4  -4 2584.74   99.39
   4  -4  -4 2256.87   93.39
  -4   4   4 2462.95   93.89
  -4   4   4 2225.98   96.69
   3  -4  -4    5.90    2.80
   3  -4  -4   -0.50    5.30
   3  -4  -4    5.20    3.40
  -3   4   4   10.60    3.90
  -3   4   4   -0.10    3.70
   2  -4  -4 1589.74   64.19
   2  -4  -4 1611.74   64.89
   2  -4  -4 1687.13   74.09
  -2   4   4 1717.73   66.59
  -1   4   4 6940.61  254.57
   0  -4  -4   65.89    9.40
   0  -4  -4   62.99    4.70
   0   4   4   56.19    4.70
   0   4   4   48.70    5.00
  -1  -4  -4 3148.89  118.49
  -1  -4  -4 3424.76  129.39
   1   4   4 3099.79  120.49
  -2  -4  -4  636.84   35.30
  -2  -4  -4  621.14   26.10
   2   4   4  638.64   26.30
   2   4   4  645.34   28.30
  -3  -4  -4  273.07   23.20
  -3  -4  -4  233.18   13.00
   3   4   4  254.27   13.00
   3   4   4  254.27   15.20
  -4  -4  -4  207.88   25.00
  -4  -4  -4  298.07   15.60
   4   4   4  296.37   17.70
   5   4   4  822.62   39.10
  -6  -4  -4  225.78   13.30
   6   4   4  216.28   15.10
   5  -5  -4  164.28   12.00
   4  -5  -4  350.46   19.40
   4  -5  -4  359.86   20.20
  -4   5   4  346.17   22.30
  -4   5   4  350.86   23.40
   3  -5  -4  362.56   31.00
   3  -5  -4  347.97   19.10
   3  -5  -4  367.66   19.80
  -3   5   4  366.56   21.60
   2  -5  -4  170.08   11.10
   2  -5  -4  172.38   11.50
   2  -5  -4  170.98   18.00
  -2   5   4  179.68   12.50
  -2   5   4  180.68   12.40
   1  -5  -4 1882.51   86.09
   1  -5  -4 1807.22   71.19
   1  -5  -4 1827.42   70.19
  -1   5   4 1849.52   71.49
  -1   5   4 1740.93   71.59
   0  -5  -4  781.02   32.10
   0  -5  -4  854.21   43.60
   0   5   4  786.82   32.30
   0   5   4  822.62   32.90
   0   5   4  732.23   34.00
  -1  -5  -4  728.83   39.20
  -1  -5  -4  676.03   27.90
   1   5   4  709.53   28.40
   1   5   4  633.84   30.10
  -2  -5  -4  473.05   31.40
   2   5   4  518.95   21.40
  -3  -5  -4  154.58   18.50
  -3  -5  -4  151.98    9.70
  -3  -5  -4  124.59   16.30
   3   5   4  160.18   12.00
   3   5   4  139.29    8.40
  -4  -5  -4  252.17   27.30
  -4  -5  -4  258.67   15.10
   4   5   4  265.57   17.50
   5   5   4   48.70    9.00
   5  -6  -4  196.68   13.10
  -5   6   4  225.68   15.70
   4  -6  -4 1283.27   53.29
   4  -6  -4 1289.57   54.79
  -4   6   4 1297.87   57.79
   3  -6  -4   67.39    7.70
   3  -6  -4   69.09    9.10
  -3   6   4   69.69   10.00
   2  -6  -4  258.27   15.20
  -2   6   4  259.07   16.30
  -2   6   4  255.57   16.20
   1  -6  -4 1146.69   47.80
   1  -6  -4 1199.88   62.09
  -1   6   4 1185.38   48.90
  -1   6   4 1188.08   49.99
   0  -6  -4  663.53   40.60
   0   6   4  660.13   34.30
  -1  -6  -4 1988.00   93.29
   1   6   4 2137.19   81.89
  -2  -6  -4   -0.70    6.30
  -2  -6  -4   -1.40    2.00
   2   6   4    1.00    2.10
   2   6   4   -3.10    5.60
   3   6   4   30.90    6.70
  -4  -6  -4  388.36   52.99
   4   6   4  397.26   23.50
  -5  -6  -4   42.90    6.20
   5   6   4   46.20    8.30
   4  -7  -4  356.46   20.00
   4  -7  -4  355.56   19.50
  -4   7   4  362.36   21.80
   3  -7  -4  123.29   10.50
   3  -7  -4  121.59   11.30
  -3   7   4  133.49   12.50
  -3   7   4  120.09   14.80
   2  -7  -4  123.59   11.00
   2  -7  -4  129.49   10.90
  -2   7   4  131.39   11.20
  -2   7   4  119.09   11.20
   1  -7  -4  169.08   24.40
   1  -7  -4  150.88   11.10
  -1   7   4  167.38   11.40
  -1   7   4  160.28   12.50
   0  -7  -4   67.09   15.50
   0  -7  -4   74.89    7.30
   0   7   4   73.29    8.30
   0   7   4   83.19    6.70
  -1  -7  -4   22.70    4.40
  -1  -7  -4   24.90    9.20
   1   7   4   28.50    6.40
   1   7   4   19.90    7.00
  -2  -7  -4  319.57   16.30
   2   7   4  286.97   21.20
   2   7   4  325.57   19.50
  -3  -7  -4  767.32   33.30
  -3  -7  -4  785.82   51.09
   3   7   4  738.23   37.20
  -4  -7  -4   71.69    7.80
   4   7   4   63.29   10.30
   5   7   4  100.99   10.50
   4  -8  -4   12.00    5.50
   4  -8  -4   10.10    4.50
  -4   8   4   26.90   10.20
  -4   8   4   21.40    5.30
   3  -8  -4  734.43   43.00
   3  -8  -4  772.62   35.90
   2  -8  -4 1581.44   64.69
  -2   8   4 1522.35   72.49
  -2   8   4 1580.24   64.09
   1  -8  -4  290.37   17.10
  -1   8   4  281.67   15.70
  -1   8   4  295.77   19.20
  -1   8   4  335.87   24.30
   0  -8  -4  784.22   34.80
   0   8   4  781.92   38.10
   0   8   4  814.32   43.50
  -1  -8  -4  439.26   21.40
   1   8   4  442.46   25.00
   1   8   4  439.56   28.00
  -2  -8  -4  742.23   31.80
   2   8   4  809.22   37.00
   2   8   4  599.74   39.00
  -3  -8  -4  188.78   13.30
   3   8   4  162.68   14.30
  -4  -8  -4 1092.89   44.70
   4   8   4 1084.99   48.70
   3  -9  -4  195.88   13.30
  -3   9   4  171.88   10.90
  -3   9   4  195.28   17.90
   2  -9  -4    2.10    6.50
  -2   9   4   -2.50    3.20
  -2   9   4    1.80    6.30
   1  -9  -4  208.28   14.20
  -1   9   4  180.78   15.00
  -1   9   4  206.48   19.90
   0  -9  -4  158.38   12.00
   0   9   4  161.18   17.30
   0   9   4  172.58   14.30
  -1  -9  -4   18.50    5.00
   1   9   4   18.80    6.40
   1   9   4   21.60    8.50
  -2  -9  -4  505.05   28.70
   2   9   4  625.04   32.80
  -3  -9  -4  525.25   24.20
   3   9   4  512.45   28.10
   2 -10  -4  171.68   12.60
  -2  10   4  169.78   16.90
   1 -10  -4  916.21   40.40
  -1  10   4  924.71   48.40
  -1  10   4  914.81   42.30
   0 -10  -4 1365.26   53.89
   0  10   4 1213.58   55.99
  -1 -10  -4  539.15   25.80
   1  10   4  551.04   32.60
   1  10   4  537.15   28.80
  -2 -10  -4  324.77   17.50
   2  10   4  376.76   21.40
   0 -11  -4   82.09   10.20
   0  11   4   64.89   10.20
   1  10  -5    1.80    7.10
   1  10  -5   22.50    5.90
   0  10  -5   -2.50    5.30
   0 -10   5   12.30    4.10
  -1  10  -5  121.69   14.00
   1 -10   5  102.89    8.40
   2   9  -5  107.69    9.90
   2   9  -5   58.09   16.30
   1   9  -5    4.00    6.60
   1   9  -5    1.50    4.70
   0   9  -5    5.60    6.50
   0   9  -5    8.70    4.70
   0  -9   5   19.20    4.90
  -1   9  -5  252.77   22.10
   1  -9   5  233.48   14.30
  -2   9  -5  113.49   14.90
   2  -9   5   99.59    9.30
  -3   9  -5  101.19   12.60
   3  -9   5   89.49    8.60
   3   8  -5  269.47   16.80
   2   8  -5  353.36   31.00
   2   8  -5  360.36   20.90
   1   8  -5  417.46   23.50
   1   8  -5  438.46   29.30
   1   8  -5  402.66   22.60
   0   8  -5   35.00    7.30
   0   8  -5   39.10    7.70
   0   8  -5   45.00   11.20
   0  -8   5   39.90    5.70
  -1   8  -5  270.77   23.90
  -1   8  -5  294.07   18.10
  -1   8  -5  258.17   17.70
   1  -8   5  286.97   16.10
  -2   8  -5  410.56   29.00
   2  -8   5  403.16   21.60
  -3   8  -5   36.50    7.80
   3  -8   5   40.20    6.70
   4   7  -5  134.49   11.40
   4   7  -5  123.39   11.60
   3   7  -5    0.00    5.60
   2   7  -5  667.23   36.80
   2   7  -5  672.13   32.60
   2   7  -5  661.53   32.40
   1   7  -5  435.06   28.90
   1   7  -5  431.36   23.50
   1   7  -5  422.86   23.20
   0   7  -5   23.70    9.30
   0   7  -5   21.00    5.90
   0  -7   5   17.90    4.10
  -1   7  -5  389.56   24.50
  -1   7  -5  369.46   21.70
  -1   7  -5  383.26   27.70
   1  -7   5  450.35   26.80
  -2   7  -5  906.11   42.60
  -2   7  -5  984.90   50.09
   2  -7   5  912.61   40.60
  -3   7  -5  234.68   15.80
  -3   7  -5  154.18   10.40
  -3   7  -5  208.28   19.30
   3  -7   5  222.88   14.60
  -4   7  -5   86.69   10.10
  -4   7  -5   67.69   13.90
  -4   7  -5   83.19    7.00
   4  -7   5   95.89    9.10
   4   6  -5  311.57   18.90
   4   6  -5  328.27   19.90
  -4  -6   5  313.17   15.90
   3   6  -5 1794.32   73.29
   3   6  -5 1747.23   72.59
   2   6  -5  821.32   42.00
   2   6  -5  786.32   39.80
   2   6  -5  864.51   38.10
   2   6  -5  823.02   41.70
   1   6  -5  246.38   15.60
   1   6  -5  261.97   15.40
   1   6  -5  241.08   19.30
  -1  -6   5  221.98   21.70
  -1  -6   5  217.58   17.00
  -1  -6   5  253.97   25.70
   0   6  -5  163.68   16.10
   0   6  -5  153.98   11.80
   0   6  -5  150.58   11.20
   0  -6   5  154.98   14.20
   0  -6   5  171.48   19.70
  -1   6  -5  745.33   34.50
  -1   6  -5  745.63   33.70
  -1   6  -5  750.22   40.00
   1  -6   5  729.33   31.30
   1  -6   5  728.53   38.40
   1  -6   5  694.63   46.80
  -2   6  -5  519.45   22.30
  -2   6  -5  463.75   33.60
   2  -6   5  472.85   27.60
  -3   6  -5  379.66   26.40
  -3   6  -5  388.86   20.70
   3  -6   5  416.06   22.00
   4  -6   5  686.83   33.60
   4  -6   5  744.63   37.30
  -5   6  -5    5.80    3.30
   5  -6   5    0.70    5.00
   5  -6   5   -4.10    3.60
   5   5  -5  171.98   12.90
  -5  -5   5  158.98   10.40
   4   5  -5  451.75   26.10
   4   5  -5  475.35   25.50
  -4  -5   5  509.25   22.40
   3   5  -5  425.96   23.50
   3   5  -5  414.86   26.40
   3   5  -5  448.86   23.30
  -3  -5   5  405.06   31.10
  -3  -5   5  420.56   18.60
   2   5  -5  611.24   33.20
   2   5  -5  616.04   39.50
   2   5  -5  622.34   29.40
   2   5  -5  657.33   30.70
  -2  -5   5  649.64   32.60
  -2  -5   5  641.34   35.20
   1   5  -5  984.30   42.80
   1   5  -5 1024.90   46.90
  -1  -5   5  992.90   49.80
  -1  -5   5 1087.49   47.00
  -1  -5   5 1020.20   46.10
   0   5  -5  470.25   22.80
   0  -5   5  483.35   26.00
  -1   5  -5 1815.02   73.19
  -1   5  -5 1918.81   74.49
  -1   5  -5 1895.41   79.59
   1  -5   5 1872.21   77.79
   1  -5   5 1809.82   71.09
  -2   5  -5  678.23   30.10
  -2   5  -5  687.13   36.60
   2  -5   5  712.13   37.10
   2  -5   5  672.93   30.30
  -3   5  -5  121.79   10.50
  -3   5  -5  143.09   14.00
   3  -5   5  131.89   10.60
   3  -5   5  102.59    9.50
  -4   5  -5 1366.46   56.89
   4  -5   5 1307.67   54.89
   4  -5   5 1271.87   55.69
  -5   5  -5  603.74   29.30
   5  -5   5  563.34   26.60
   5  -5   5  588.64   28.20
   5   4  -5  115.99   10.60
  -5  -4   5  107.09    9.00
   4   4  -5  530.65   26.40
   4   4  -5  539.35   28.00
  -4  -4   5  511.15   23.20
  -4  -4   5  423.96   37.60
   3   4  -5  361.26   19.40
   3   4  -5  358.86   22.70
   3   4  -5  355.86   20.50
  -3  -4   5  332.77   26.60
  -3  -4   5  334.27   15.90
   2   4  -5  618.64   31.50
   2   4  -5  599.14   29.00
   2   4  -5  608.24   27.90
   2   4  -5  586.94   31.20
  -2  -4   5  677.23   34.50
   1   4  -5  371.76   21.00
   1   4  -5  353.16   21.50
   1   4  -5  357.76   18.90
  -1  -4   5  406.66   20.70
  -1  -4   5  339.57   21.70
  -1  -4   5  387.86   21.00
   0   4  -5 7332.67  269.77
   0   4  -5 7239.38  271.27
   0   4  -5 7090.59  265.67
   0   4  -5 7288.07  266.87
   0  -4   5 7357.26  269.47
  -1   4  -5 3240.58  129.39
  -1   4  -5 3545.85  137.09
   1  -4   5 3868.11  139.89
   1  -4   5 3433.76  129.89
  -2   4  -5  274.77   15.20
  -2   4  -5  308.57   25.10
   2  -4   5  282.57   19.00
   2  -4   5  282.97   15.10
  -3   4  -5   95.49    8.90
  -3   4  -5   77.29   10.40
   3  -4   5   78.29   10.90
   3  -4   5  103.69    8.70
   3  -4   5   73.99    7.60
  -4   4  -5  292.17   18.90
   4  -4   5  287.47   17.10
   4  -4   5  310.07   17.80
  -5   4  -5  723.23   35.70
   5  -4   5  728.83   33.90
   5   3  -5  102.79   10.00
  -5  -3   5   94.69   10.50
   4   3  -5  227.18   15.10
   4   3  -5  250.37   16.90
   4   3  -5  226.78   18.50
  -4  -3   5  221.68   13.10
   3   3  -5  219.68   16.50
   3   3  -5  228.88   15.00
   3   3  -5  228.08   13.60
  -3  -3   5  237.78   13.00
  -3  -3   5  207.98   28.60
   2   3  -5    7.10    4.10
   2   3  -5    9.30    3.90
   2   3  -5    3.30    2.10
   2   3  -5    2.90    2.80
  -2  -3   5    0.70    3.00
   1   3  -5 6140.89  220.38
  -1  -3   5 5810.92  225.88
   0   3  -5  269.07   15.80
   0  -3   5  291.07   16.10
  -1   3  -5 9999.00  363.46
   1  -3   5 9737.33  357.56
  -2   3  -5  868.71   42.50
  -2   3  -5  964.30   46.70
  -2   3  -5  984.90   40.10
   2  -3   5  982.60   43.60
   2  -3   5  950.90   39.00
   2  -3   5  985.80   41.60
  -3   3  -5  494.05   35.60
  -3   3  -5  508.85   27.40
  -3   3  -5  534.55   26.30
   3  -3   5  530.75   29.70
   3  -3   5  549.74   24.80
  -4   3  -5  440.76   24.70
  -4   3  -5  401.86   38.00
   4  -3   5  466.05   26.00
   4  -3   5  426.66   23.30
  -5   3  -5  118.99   12.40
   5  -3   5  123.99   10.50
  -6   3  -5  172.48   12.80
   6  -3   5  143.39   11.20
   6   2  -5    4.10    4.00
  -6  -2   5    5.70    4.20
   5   2  -5  751.02   34.70
  -5  -2   5  708.23   32.50
   4   2  -5  107.19   12.40
   4   2  -5   90.59    6.00
   4   2  -5   91.99   10.00
   4   2  -5   97.59   14.40
  -4  -2   5   85.59   21.20
  -4  -2   5   83.29    8.70
   3   2  -5  270.97   18.00
   3   2  -5  262.67   12.00
   3   2  -5  260.27   16.00
  -3  -2   5  255.57   21.40
   2   2  -5 2159.28   80.79
   2   2  -5 1923.91   79.39
   2   2  -5 2017.60   78.09
   2   2  -5 1936.61   76.19
   2   2  -5 2177.58   74.09
  -2  -2   5 1823.42   81.39
   1   2  -5  699.73   32.00
  -1  -2   5  631.14   30.90
  -1  -2   5  686.73   28.60
   0   2  -5 9143.49  341.47
   0  -2   5 8740.33  343.87
  -1   2  -5 5075.69  221.08
   1  -2   5 5383.56  223.88
  -2   2  -5 1720.53   72.99
  -2   2  -5 1736.63   69.29
   2  -2   5 1676.93   69.29
  -3   2  -5  607.54   32.80
  -3   2  -5  585.04   36.80
   3  -2   5  652.73   28.00
   3  -2   5  613.54   27.60
   3  -2   5  616.94   32.00
  -4   2  -5    8.20    8.00
  -4   2  -5    4.80    4.00
   4  -2   5   12.40    3.70
   4  -2   5   13.10    4.20
  -5   2  -5  124.49   12.60
   5  -2   5  121.39   10.50
  -6   2  -5   81.89    9.50
   6  -2   5   87.49    8.00
  -6  -1   5  291.77   15.90
   5   1  -5  285.37   14.60
   5   1  -5  298.37   24.10
  -5  -1   5  292.87   32.60
  -5  -1   5  315.57   17.40
   4   1  -5  452.75   25.00
   4   1  -5  430.36   26.90
   4   1  -5  439.56   20.30
  -4  -1   5  436.56   21.20
  -4  -1   5  440.96   35.00
   3   1  -5   81.89    9.20
  -3  -1   5   69.49   11.40
   2   1  -5 1778.12   67.09
  -2  -1   5 1552.24   61.79
  -2  -1   5 1633.34   69.29
   1   1  -5  698.43   30.60
  -1  -1   5  714.53   29.90
  -1  -1   5  716.73   30.70
   0   1  -5 2173.58   80.39
   0  -1   5 2054.29   84.89
  -1   1  -5 1065.99   39.90
  -1   1  -5  978.00   40.10
   1  -1   5  996.10   40.50
   1  -1   5  880.91   45.90
  -2   1  -5 2195.68   96.09
  -2   1  -5 2743.53  102.49
   2  -1   5 2736.53   98.69
   2  -1   5 2489.45   95.39
  -3   1  -5 3813.72  147.29
  -3   1  -5 3773.72  156.28
   3  -1   5 4100.19  150.18
   3  -1   5 3941.61  145.19
   3  -1   5 3799.62  144.29
  -4   1  -5  134.89   18.60
  -4   1  -5  157.28   12.50
   4  -1   5  129.39   10.80
   4  -1   5  155.78   10.70
  -5   1  -5 2007.40   78.29
  -5   1  -5 1798.02   71.39
  -5   1  -5 1694.03   94.19
   5  -1   5 1834.52   73.89
  -6   1  -5   23.60    6.40
   6  -1   5   28.00    5.00
   6   0  -5   25.40    3.30
   6   0  -5   33.30    6.30
  -6   0   5   36.80    5.90
  -5   0   5  754.62   32.10
  -5   0   5  598.14   56.09
   4   0  -5  179.68   11.00
   4   0  -5  170.18   13.80
   4   0  -5  189.58   16.30
  -4   0   5  191.48   11.90
  -4   0   5  152.58   14.20
  -4   0   5  166.98   20.90
   3   0  -5   61.39    5.20
   3   0  -5   59.39    8.10
   3   0  -5   53.99    6.70
  -3   0   5   57.49    5.90
  -3   0   5   66.59   11.10
  -3   0   5   54.89    7.70
   2   0  -5 1697.63   68.29
   2   0  -5 1750.82   70.29
  -2   0   5 1843.02   74.69
   1   0  -5 1091.09   45.10
   1   0  -5 1103.59   44.00
  -1   0   5 1124.49   44.20
  -1   0   5 1034.60   44.50
  -2   0  -5 1978.30   76.69
  -2   0  -5 1750.12   71.59
  -2   0  -5 1757.02   73.49
   2   0   5 1805.72   69.89
   2   0   5 1972.30   72.49
   2   0   5 1841.22   70.39
  -3   0  -5  310.27   17.30
  -3   0  -5  296.67   14.60
  -3   0  -5  308.27   22.90
   3   0   5  299.27   15.30
   3   0   5  274.17   17.00
  -4   0  -5    9.00    4.50
  -4   0  -5    9.10    6.20
   4   0   5    5.80    4.50
   4   0   5    9.50    3.50
  -5   0  -5  116.69   12.20
  -5   0  -5  100.79   19.80
   5   0   5  101.99    9.30
  -6   0  -5  229.48   16.30
   6   0   5  219.78   13.50
   6  -1  -5  168.08    9.80
   5  -1  -5  126.49    9.30
   5  -1  -5  116.19   15.80
  -5   1   5  117.79   10.30
  -5   1   5  115.79   13.50
  -5   1   5   94.99   28.10
   4  -1  -5  299.87   16.10
   4  -1  -5  297.27   18.60
   4  -1  -5  305.57   21.60
  -4   1   5  286.27   19.10
  -4   1   5  275.47   28.10
  -4   1   5  274.77   15.70
   3  -1  -5 1325.47   56.69
   3  -1  -5 1303.07   51.59
  -3   1   5 1332.67   54.79
  -3   1   5 1234.68   63.59
  -3   1   5 1269.07   50.69
   2  -1  -5   13.70    3.20
   2  -1  -5   12.90    3.70
   2  -1  -5   12.40    3.90
  -2   1   5   10.20    4.90
   1  -1  -5  572.94   25.40
   1  -1  -5  595.44   27.30
  -1   1   5  565.54   27.60
  -1   1   5  569.24   26.10
  -1   1   5  582.74   26.90
   0  -1  -5 2061.89   81.79
   0  -1  -5 1975.10   76.69
   0   1   5 2132.99   81.89
  -2  -1  -5 2824.42  110.89
   2   1   5 2731.03  104.49
   2   1   5 2861.21  105.49
  -3  -1  -5  939.91   38.60
  -3  -1  -5  895.11   41.10
  -3  -1  -5  984.90   49.30
   3   1   5  940.71   39.20
   3   1   5 1026.90   41.80
  -4  -1  -5  105.89   16.80
  -4  -1  -5  106.89    8.70
  -4  -1  -5  135.09   11.60
   4   1   5  110.09    8.70
   4   1   5   92.69   11.90
  -5  -1  -5  571.34   44.50
  -5  -1  -5  603.44   31.70
   5   1   5  599.64   28.30
  -6  -1  -5  199.48   13.10
  -6  -1  -5  228.78   17.90
   6   1   5  233.18   14.90
   6   1   5  231.98   13.30
   6  -2  -5   69.29    6.00
  -6   2   5   58.39    7.40
   5  -2  -5  611.34   28.50
   5  -2  -5  612.94   36.10
  -5   2   5  531.05   45.80
  -5   2   5  646.24   28.50
  -5   2   5  586.24   32.60
   4  -2  -5 1116.49   52.29
  -4   2   5 1010.90   48.30
  -4   2   5 1017.20   78.79
  -4   2   5 1070.59   44.10
   3  -2  -5  201.58   11.90
   3  -2  -5  202.28   14.20
   3  -2  -5  211.88   15.90
  -3   2   5  184.08   28.10
  -3   2   5  190.28   13.70
   2  -2  -5 7107.19  255.27
   2  -2  -5 7390.96  255.07
  -2   2   5 6386.46  258.77
   1  -2  -5 2728.73  104.99
  -1   2   5 2624.64  105.29
  -1   2   5 2689.53  102.39
   0  -2  -5 5263.67  226.38
   0   2   5 5299.57  230.38
   1   2   5  300.47   13.20
   1   2   5  307.17   19.60
  -2  -2  -5 2326.67   87.39
  -2  -2  -5 1793.52   86.69
   2   2   5 2165.38   78.59
  -3  -2  -5 3303.77  131.09
  -3  -2  -5 3129.89  121.39
  -3  -2  -5 2945.21  118.59
   3   2   5 3191.28  118.79
   3   2   5 3259.67  121.29
  -4  -2  -5   77.89   10.40
  -4  -2  -5   74.49   14.30
  -4  -2  -5   80.79    7.60
   4   2   5   78.29    7.20
  -5  -2  -5 1092.79   49.80
  -5  -2  -5 1000.10   64.39
   5   2   5 1151.98   48.20
   5   2   5 1065.49   45.50
  -6  -2  -5  173.28   11.60
   6   2   5  152.58   10.00
   6   2   5  166.88   12.40
   5  -3  -5  708.33   41.80
   5  -3  -5  646.94   31.40
  -5   3   5  685.93   35.60
   4  -3  -5  209.38   13.80
   4  -3  -5  211.28   18.40
  -4   3   5  282.97   42.90
  -4   3   5  214.68   16.40
   3  -3  -5   44.70    6.20
   3  -3  -5   32.10    8.10
   3  -3  -5   38.70    6.10
  -3   3   5   38.30   11.20
  -3   3   5   38.50    7.20
  -3   3   5   52.89    6.80
   2  -3  -5 2969.40  115.69
   2  -3  -5 3072.69  122.79
   2  -3  -5 3053.99  115.19
  -2   3   5 3031.90  114.19
  -2   3   5 3273.07  117.99
  -1   3   5 7598.24  288.87
  -1   3   5 8237.48  293.67
   0  -3  -5 4127.19  163.78
   0   3   5 4403.76  156.98
  -1  -3  -5 3890.71  145.19
  -1  -3  -5 4037.20  154.68
  -2  -3  -5 4395.06  161.88
  -2  -3  -5 4265.57  172.68
   2   3   5 4707.73  162.58
   2   3   5 4261.57  163.08
  -3  -3  -5   21.10    5.20
  -3  -3  -5   23.30    7.50
  -3  -3  -5   25.70    4.10
   3   3   5   22.60    5.10
   3   3   5   22.10    3.90
  -4  -3  -5   36.50   13.30
  -4  -3  -5   24.10    6.50
   4   3   5   38.20    6.90
   4   3   5   33.40    5.30
  -5  -3  -5   75.79   18.20
   5   3   5   66.69    9.80
   5   3   5   77.99    7.30
  -6  -3  -5  247.78   14.10
   6   3   5  225.58   15.10
   5  -4  -5  361.46   29.30
   5  -4  -5  368.06   20.00
  -5   4   5  364.96   23.30
   4  -4  -5  107.99    9.40
  -4   4   5   82.39    9.90
  -4   4   5  102.39   11.60
   3  -4  -5  428.56   21.00
   3  -4  -5  425.66   21.70
   3  -4  -5  415.16   29.50
  -3   4   5  427.56   20.50
  -3   4   5  428.66   23.90
   2  -4  -5 1339.67   75.39
   2  -4  -5 1344.17   53.19
   2  -4  -5 1326.97   53.69
  -2   4   5 1310.07   55.89
   1  -4  -5 1055.69   48.40
   1  -4  -5  907.71   39.40
  -1   4   5  926.61   39.60
   0  -4  -5 4224.68  154.38
   0  -4  -5 3810.52  142.89
   0   4   5 3547.04  143.99
   0   4   5 3949.70  143.29
  -1  -4  -5 4672.03  169.58
  -1  -4  -5 4922.11  181.78
   1   4   5 4538.65  169.98
   1   4   5 4388.16  171.08
  -2  -4  -5  884.01   46.80
   2   4   5  886.21   38.00
   2   4   5  934.71   36.60
  -3  -4  -5   81.59   12.80
  -3  -4  -5   78.89    7.00
   3   4   5   83.29    6.40
   3   4   5   85.69    8.00
  -4  -4  -5 1235.18   51.59
  -4  -4  -5 1178.78   68.29
   4   4   5 1350.26   54.99
   4   4   5 1293.47   51.09
   5   4   5  158.28   13.10
   5   4   5  145.29   10.50
   5  -5  -5  115.29    9.80
  -5   5   5  116.89   12.10
   4  -5  -5 1150.48   48.90
   4  -5  -5 1162.18   56.89
  -4   5   5 1048.90   51.19
   3  -5  -5   16.10    5.10
   3  -5  -5   16.50    4.10
  -3   5   5    7.60    4.70
   2  -5  -5   47.90   10.40
   2  -5  -5   64.99   12.90
   2  -5  -5   58.59    6.90
  -2   5   5   72.09    7.90
   1  -5  -5  808.12   36.80
   1  -5  -5  994.00   55.29
  -1   5   5  837.02   37.40
   0  -5  -5  319.07   23.60
   0  -5  -5  286.27   14.50
   0   5   5  298.57   15.10
   0   5   5  308.67   16.30
  -1  -5  -5  746.03   40.90
  -1  -5  -5  685.73   28.90
   1   5   5  683.63   30.90
   1   5   5  695.53   29.30
  -2  -5  -5  248.08   22.70
  -2  -5  -5  263.77   14.90
   2   5   5  271.87   13.30
   2   5   5  255.77   15.30
  -3  -5  -5  212.28   23.20
  -3  -5  -5  283.57   25.10
   3   5   5  277.37   13.70
   3   5   5  284.27   16.90
  -4  -5  -5  304.17   29.90
   4   5   5  328.77   19.80
   4   5   5  298.37   14.80
  -5  -5  -5  203.38   13.10
   5   5   5  184.88   14.50
   5  -6  -5   59.49    6.70
  -5   6   5   70.59    9.90
   4  -6  -5  348.47   26.50
   4  -6  -5  367.46   20.30
  -4   6   5  368.26   22.60
  -4   6   5  332.27   25.60
   3  -6  -5   26.10    6.70
   3  -6  -5   19.80    4.80
  -3   6   5   23.00    6.50
   2  -6  -5  532.05   25.30
   2  -6  -5  498.55   37.30
   2  -6  -5  520.35   25.80
  -2   6   5  523.75   26.50
  -2   6   5  510.35   26.60
   1  -6  -5   26.70    5.50
   1  -6  -5   41.20    5.90
   1  -6  -5   42.70   11.20
  -1   6   5   28.70    5.20
  -1   6   5   35.10    6.30
   0  -6  -5 2423.06   96.39
   0  -6  -5 2616.44  112.39
   0   6   5 2539.35   98.29
  -1  -6  -5  308.77   26.10
  -1  -6  -5  289.17   14.80
   1   6   5  279.37   16.80
   1   6   5  295.47   14.60
  -2  -6  -5  306.27   15.30
  -2  -6  -5  250.17   24.80
   2   6   5  320.87   18.20
   2   6   5  287.77   14.00
   2   6   5  302.17   19.70
  -3  -6  -5  197.78   22.80
  -3  -6  -5  195.98   11.70
   3   6   5  194.18   14.00
   3   6   5  143.79    8.40
  -4  -6  -5   92.69   20.30
  -4  -6  -5  101.49    9.10
   4   6   5  100.29   10.90
  -5  -6  -5  528.45   24.90
   5   6   5  531.55   27.60
   4  -7  -5    5.40    3.30
   4  -7  -5    7.40    5.60
  -4   7   5   10.80    5.30
  -4   7   5    3.70    6.10
   3  -7  -5  349.87   20.20
   3  -7  -5  372.36   21.20
  -3   7   5  355.86   25.80
  -3   7   5  343.37   21.60
   2  -7  -5  540.25   27.20
   2  -7  -5  561.54   27.90
  -2   7   5  556.14   28.30
  -2   7   5  549.25   28.60
   1  -7  -5  249.38   15.20
  -1   7   5  263.37   15.70
  -1   7   5  255.87   16.80
   0  -7  -5  716.73   32.50
   0  -7  -5  749.03   48.90
   0   7   5  769.02   32.70
   0   7   5  762.92   35.50
  -1  -7  -5   19.70    4.20
  -1  -7  -5    5.10    8.90
   1   7   5   27.00    7.70
   1   7   5   30.20    6.60
   1   7   5   31.90    4.20
  -2  -7  -5  113.99   13.30
   2   7   5  124.29   11.10
   2   7   5   93.39   13.80
  -3  -7  -5   49.70   13.70
  -3  -7  -5   56.49    7.00
   3   7   5   56.59    9.40
  -4  -7  -5 1247.98   50.09
   4   7   5 1168.28   53.49
  -5  -7  -5   21.30    5.80
   4  -8  -5  125.19   10.60
   4  -8  -5  130.79   11.20
  -4   8   5  145.89   11.30
  -4   8   5  114.29   14.50
   3  -8  -5  204.78   14.90
   3  -8  -5  232.48   16.30
  -3   8   5  218.28   21.50
  -3   8   5  224.58   15.10
   2  -8  -5 1220.98   52.09
  -2   8   5 1191.98   51.89
  -2   8   5 1239.18   60.09
   1  -8  -5  702.53   33.20
  -1   8   5  739.43   35.70
  -1   8   5  712.33   32.40
  -1   8   5  748.83   41.40
   0  -8  -5  122.39   10.10
   0   8   5  125.59   15.20
   0   8   5  112.89   11.40
  -1  -8  -5  623.94   28.90
   1   8   5  637.84   32.50
   1   8   5  653.33   36.20
  -2  -8  -5 2751.12  104.49
   2   8   5 2707.63  109.09
  -3  -8  -5  487.35   26.50
   3   8   5  589.04   30.00
  -4  -8  -5  255.77   14.80
   4   8   5  279.37   17.80
   3  -9  -5  122.29   10.10
  -3   9   5  123.39   14.50
  -3   9   5   95.89    8.20
   2  -9  -5  507.75   24.80
  -2   9   5  500.95   31.80
  -2   9   5  399.56   21.00
   1  -9  -5 1585.54   65.29
  -1   9   5 1516.65   73.59
  -1   9   5 1668.93   68.09
   0  -9  -5  199.38   13.90
   0   9   5  214.58   16.20
   0   9   5  204.08   19.30
  -1  -9  -5 1230.48   50.99
   1   9   5 1267.77   59.29
   1   9   5 1181.08   54.29
  -2  -9  -5  271.47   18.30
  -3  -9  -5  246.08   13.90
   3   9   5  217.18   16.30
   2 -10  -5   14.00    4.40
  -2  10   5   24.80    8.80
   1 -10  -5  298.27   17.50
  -1  10   5  308.27   23.40
  -1  10   5  269.57   18.20
   0 -10  -5 1490.45   61.29
   0  10   5 1559.24   70.29
   0  10   5 1479.55   63.99
  -1 -10  -5  260.87   15.50
   1  10   5  254.57   17.40
   1  10   5  238.58   20.90
  -2 -10  -5  368.76   18.40
   2  10   5  338.57   20.90
   2   9  -6   -6.90    7.50
   2   9  -6   12.80    6.00
   1   9  -6   35.40    9.60
   1   9  -6   27.40    6.20
   0   9  -6  283.77   23.30
   0   9  -6  272.87   16.70
   0  -9   6  252.67   14.30
  -1   9  -6  203.98   19.60
   1  -9   6  196.88   12.50
  -2   9  -6   17.90    7.40
   2  -9   6   23.60    5.00
   3   8  -6  263.17   20.60
   3   8  -6  245.38   16.40
   2   8  -6  298.47   22.80
   2   8  -6  317.77   19.10
   2   8  -6  317.37   18.80
   1   8  -6  201.78   15.30
   1   8  -6  211.38   20.10
   1   8  -6  213.48   15.10
   0   8  -6  332.47   19.80
   0   8  -6  299.37   24.60
   0   8  -6  298.47   18.70
   0  -8   6  327.97   16.60
  -1   8  -6  231.78   16.30
  -1   8  -6  228.18   21.20
   1  -8   6  237.98   14.20
  -2   8  -6   86.09   10.50
   2  -8   6   57.79   10.50
  -3   8  -6  428.46   23.40
  -3   8  -6  433.56   28.10
   3  -8   6  447.36   22.60
   4   7  -6  231.18   16.40
   4   7  -6  224.88   15.00
   3   7  -6  180.08   13.70
   3   7  -6  194.68   14.40
   2   7  -6  816.52   42.50
   2   7  -6  825.72   38.30
   2   7  -6  796.72   37.30
   1   7  -6  416.96   28.70
   1   7  -6  424.76   23.40
   1   7  -6  412.56   22.70
   0   7  -6  285.37   17.30
   0   7  -6  293.27   18.30
   0   7  -6  287.67   23.30
   0  -7   6  268.77   14.60
  -1   7  -6  544.35   27.90
  -1   7  -6  507.85   33.00
  -1   7  -6  514.65   26.10
   1  -7   6  482.75   23.90
  -2   7  -6  540.45   28.20
  -2   7  -6  515.45   33.50
   2  -7   6  486.65   25.20
  -3   7  -6   27.40    8.30
  -3   7  -6   15.90    9.70
   3  -7   6   13.00    5.10
  -4   7  -6  293.37   18.00
   4  -7   6  302.57   17.20
   4   6  -6  131.49   12.30
   4   6  -6  113.69   11.00
  -4  -6   6  133.69    9.10
   3   6  -6  292.17   18.20
   3   6  -6  298.37   19.20
   3   6  -6  293.77   24.20
   2   6  -6   79.79   13.00
   2   6  -6  101.69   12.90
   2   6  -6   95.49   10.30
   1   6  -6  665.43   37.10
   1   6  -6  677.53   32.30
   1   6  -6  677.33   31.10
  -1  -6   6  622.44   34.70
   0   6  -6  355.16   20.20
   0   6  -6  341.37   18.90
   0   6  -6  371.46   25.20
   0  -6   6  328.57   23.00
   0  -6   6  324.07   28.70
  -1   6  -6 1160.78   56.19
  -1   6  -6 1180.58   48.70
  -1   6  -6 1228.58   50.79
   1  -6   6 1138.99   46.60
   1  -6   6 1138.29   54.89
   1  -6   6 1035.10   64.49
  -2   6  -6  393.26   27.00
  -2   6  -6  354.46   17.40
  -2   6  -6  413.56   23.30
   2  -6   6  393.26   20.40
  -3   6  -6 1297.47   60.39
  -3   6  -6 1260.97   51.79
   3  -6   6 1228.18   52.99
  -4   6  -6  178.28   12.30
   4  -6   6  177.28   13.30
   4   5  -6   59.89    9.60
   4   5  -6   51.49    8.60
   3   5  -6 1336.87   55.59
   3   5  -6 1234.78   69.59
   3   5  -6 1373.76   57.49
   2   5  -6  559.04   27.40
   2   5  -6  494.95   29.60
   2   5  -6  520.05   25.30
   2   5  -6  538.45   30.30
  -2  -5   6  517.55   29.90
   1   5  -6 2783.32  103.59
   1   5  -6 2609.04  107.99
   1   5  -6 2675.53  107.39
  -1  -5   6 2519.95  114.99
  -1  -5   6 2627.14  105.99
   0   5  -6 2906.11  109.09
   0   5  -6 2709.43  106.99
   0   5  -6 2850.01  114.39
   0  -5   6 2780.02  112.19
  -1   5  -6 1474.35   57.29
  -1   5  -6 1203.58   55.79
  -1   5  -6 1418.56   62.19
   1  -5   6 1334.47   60.49
  -2   5  -6 1090.49   51.19
  -2   5  -6 1066.09   43.20
   2  -5   6 1028.90   43.70
   2  -5   6 1010.40   50.79
  -3   5  -6  317.37   18.10
  -3   5  -6  327.67   23.00
   3  -5   6  295.17   17.80
  -4   5  -6 3075.49  118.99
   4  -5   6 3014.70  117.39
   4  -5   6 3058.49  118.69
  -5   5  -6  199.48   13.90
   5  -5   6  199.78   13.40
   5   4  -6  245.28   15.90
   5   4  -6  258.07   17.70
  -5  -4   6  266.07   14.50
   4   4  -6   63.69    8.60
   4   4  -6   53.49    9.20
   4   4  -6   54.49   11.80
  -4  -4   6   40.80    6.10
   3   4  -6  289.47   16.40
   3   4  -6  290.27   20.50
   3   4  -6  240.08   18.50
  -3  -4   6  264.97   13.30
  -3  -4   6  260.67   23.10
   2   4  -6   61.19    7.00
   2   4  -6   58.69    8.60
   2   4  -6   54.39    6.90
   2   4  -6   59.39    9.50
  -2  -4   6   49.40    9.50
   1   4  -6 2122.99   90.49
   1   4  -6 2219.08   89.59
  -1  -4   6 2299.27   85.49
   0   4  -6   29.50    5.50
   0   4  -6   28.40    6.90
   0   4  -6   29.70    4.70
   0   4  -6   23.50    5.70
   0  -4   6   27.40    6.70
  -1   4  -6 1544.75   57.69
   1  -4   6 1475.35   58.19
  -2   4  -6  293.17   15.40
   2  -4   6  273.97   15.10
   2  -4   6  283.57   19.70
  -3   4  -6  703.83   36.90
  -3   4  -6  711.03   33.30
   3  -4   6  712.73   32.20
   3  -4   6  708.73   32.40
  -4   4  -6  155.88   13.10
   4  -4   6  155.88   11.80
   4  -4   6  160.38   12.00
  -5   4  -6  399.86   22.20
   5  -4   6  396.36   20.80
   5  -4   6  323.47   19.00
   5   3  -6  241.08   15.80
   5   3  -6  269.67   18.20
  -5  -3   6  250.57   14.70
   4   3  -6  381.76   22.60
   4   3  -6  364.26   32.60
   4   3  -6  379.16   20.60
  -4  -3   6  336.37   32.20
  -4  -3   6  369.46   18.40
   3   3  -6  495.45   26.00
   3   3  -6  509.75   28.90
   3   3  -6  495.85   28.80
   3   3  -6  541.85   24.70
  -3  -3   6  503.05   22.00
   2   3  -6  228.48   14.10
   2   3  -6  199.68   15.30
   2   3  -6  222.28   15.70
   2   3  -6  225.38   12.60
  -2  -3   6  252.57   17.50
   1   3  -6  332.47   19.40
   1   3  -6  353.66   20.60
   1   3  -6  359.46   18.00
  -1  -3   6  366.76   16.40
  -1  -3   6  307.67   22.00
  -1   3  -6  901.11   41.60
   1  -3   6  842.22   37.10
   1  -3   6  982.00   41.40
  -2   3  -6   82.79    9.80
  -2   3  -6   84.89    7.30
   2  -3   6   89.39    9.70
   2  -3   6   80.79    7.00
  -3   3  -6  350.46   40.00
  -3   3  -6  364.46   20.20
   3  -3   6  371.96   24.10
   3  -3   6  383.06   19.20
  -4   3  -6  296.97   18.60
   4  -3   6  283.47   16.80
   4  -3   6  274.47   16.40
  -5   3  -6  355.86   21.80
   5  -3   6  343.37   20.80
   5   2  -6   27.10   17.30
   5   2  -6   47.70    9.30
   5   2  -6   62.29   10.10
  -5  -2   6   46.10   11.10
   4   2  -6  153.98   13.00
   4   2  -6  160.48   15.70
   4   2  -6  115.89    6.80
   4   2  -6  156.38   11.20
  -4  -2   6  156.98   10.30
  -4  -2   6   87.59   22.90
   3   2  -6   81.69   10.00
   3   2  -6   75.79    7.20
   3   2  -6   73.99    6.70
   3   2  -6   73.09    7.90
  -3  -2   6   58.69   11.40
  -3  -2   6   80.19    6.30
   2   2  -6  179.48   13.00
   2   2  -6  201.68   14.00
   2   2  -6  195.48   12.20
   2   2  -6  187.48   10.50
  -2  -2   6  178.38   14.20
  -2  -2   6  185.98    9.90
   1   2  -6 2115.09   81.39
  -1  -2   6 2007.80   82.79
   0  -2   6  426.26   27.10
   0  -2   6  482.55   23.00
  -1   2  -6 1897.51   75.99
  -1   2  -6 1879.01   74.29
   1  -2   6 1955.30   75.29
   1  -2   6 1818.42   70.99
  -2   2  -6 1624.64   67.99
  -2   2  -6 1647.34   70.79
  -2   2  -6 1667.23   65.39
   2  -2   6 1649.93   64.59
   2  -2   6 1655.63   63.99
   2  -2   6 1713.13   68.79
  -3   2  -6  518.35   25.20
  -3   2  -6  464.25   25.60
  -3   2  -6  488.85   32.20
   3  -2   6  482.05   22.90
   3  -2   6  483.95   29.50
   3  -2   6  514.55   28.00
  -4   2  -6  176.38   14.00
  -4   2  -6  156.58   21.20
   4  -2   6  158.48   11.30
   4  -2   6  183.18   12.50
  -5   2  -6  129.79   12.70
  -5   2  -6  104.99   25.20
   5  -2   6  126.59   10.70
  -6   2  -6   60.89    8.90
   6  -2   6   67.39    6.90
   6   1  -6    8.30    3.90
  -6  -1   6   22.70    7.20
   5   1  -6  148.79   21.90
   5   1  -6  146.69   11.60
   5   1  -6  125.09    8.20
  -5  -1   6  155.08   11.50
   4   1  -6   14.60    3.60
   4   1  -6   14.00    5.50
   4   1  -6   24.40    7.40
  -4  -1   6   20.50   15.80
  -4  -1   6   14.90    4.20
   3   1  -6  174.78   14.40
   3   1  -6  179.98   10.00
   3   1  -6  167.08   12.40
  -3  -1   6  182.28   17.80
  -3  -1   6  173.18   11.10
   2   1  -6  857.01   37.60
   2   1  -6  853.91   35.40
  -2  -1   6  820.42   39.20
  -2  -1   6  766.82   32.20
   1   1  -6 3459.35  126.39
   1   1  -6 3215.38  123.19
  -1  -1   6 3167.68  122.59
  -1  -1   6 3369.46  125.79
   0   1  -6  561.44   25.70
   0  -1   6  621.64   33.90
  -1   1  -6 3600.54  130.59
  -1   1  -6 3521.85  129.99
   1  -1   6 3342.87  131.39
  -2   1  -6  774.72   37.00
   2  -1   6  759.72   31.60
   2  -1   6  737.13   34.20
  -3   1  -6  148.19   11.30
  -3   1  -6  153.18   16.50
  -3   1  -6  154.58    9.50
   3  -1   6  145.79   10.10
   3  -1   6  159.68   12.80
  -4   1  -6  492.15   36.60
  -4   1  -6  473.65   26.30
  -4   1  -6  487.65   22.60
   4  -1   6  474.75   22.80
   4  -1   6  505.65   24.40
  -5   1  -6  618.44   32.70
   5  -1   6  636.84   30.20
  -6   1  -6   15.50    5.30
   6  -1   6   10.80    3.70
   6   0  -6  184.18   12.70
  -6   0   6  219.88   15.90
   5   0  -6  409.06   19.50
   5   0  -6  416.36   28.50
  -5   0   6  400.06   21.20
   4   0  -6  616.34   31.00
   4   0  -6  597.04   29.10
   4   0  -6  576.54   33.70
  -4   0   6  598.04   46.30
  -4   0   6  634.74   29.60
   3   0  -6  379.96   22.50
   3   0  -6  363.76   20.10
   3   0  -6  380.96   18.00
  -3   0   6  396.56   24.00
  -3   0   6  379.66   17.70
  -3   0   6  338.77   26.50
   2   0  -6  653.33   30.30
   2   0  -6  663.33   26.70
   2   0  -6  614.64   28.10
  -2   0   6  632.54   26.00
  -2   0   6  634.74   33.10
   1   0  -6  846.42   35.70
   1   0  -6  781.12   37.30
  -1   0   6  892.11   36.90
   0   0  -6   71.39    4.90
   0   0  -6   73.39    5.80
   0   0  -6   56.79    8.10
   0   0   6   70.39    8.50
  -1   0  -6  282.97   14.40
  -1   0  -6  278.17   13.40
   1   0   6  273.97   14.50
   1   0   6  256.57   19.40
  -2   0  -6 2436.56   92.69
  -2   0  -6 2453.05   97.09
  -2   0  -6 2378.86   90.19
   2   0   6 2416.56   93.39
  -3   0  -6  114.49    9.50
  -3   0  -6  116.89   14.10
   3   0   6  115.39    8.30
   3   0   6  119.19   10.40
  -4   0  -6 1726.63   84.49
  -4   0  -6 1721.63   71.39
   4   0   6 1747.53   74.99
   4   0   6 1653.03   68.29
  -5   0  -6    7.00    7.90
  -5   0  -6   15.90    6.50
  -5   0  -6   20.10    5.60
   5   0   6   12.20    4.10
  -6   0  -6  408.16   23.00
   6   0   6  379.06   20.10
   6   0   6  420.76   21.50
   6  -1  -6  131.29   10.20
   6  -1  -6  117.19    7.40
  -6   1   6  137.89   10.40
   5  -1  -6  182.08   18.40
   5  -1  -6  180.38   11.60
  -5   1   6  170.48   12.40
  -5   1   6  177.18   16.40
   4  -1  -6  310.57   22.30
   4  -1  -6  302.37   16.30
  -4   1   6  275.27   16.10
  -4   1   6  265.17   38.40
  -4   1   6  316.27   20.30
   3  -1  -6  848.72   40.10
   3  -1  -6  831.12   34.80
   3  -1  -6  841.72   36.80
  -3   1   6  838.42   34.20
  -3   1   6  794.32   37.40
  -3   1   6  780.12   45.90
   2  -1  -6  655.63   30.80
   2  -1  -6  699.03   31.70
   2  -1  -6  652.43   28.80
  -2   1   6  659.33   35.40
   1  -1  -6 9015.70  365.06
  -1   1   6 8577.04  367.66
   0  -1  -6   19.20    5.30
   0  -1  -6   27.80    3.60
   0   1   6   18.20    5.50
  -1  -1  -6 9632.34  388.16
   1   1   6 9763.72  395.06
  -2  -1  -6   11.00    3.40
   2   1   6   17.40    3.40
   2   1   6   12.80    2.80
   2   1   6   10.70    3.00
  -3  -1  -6 1040.00   52.29
  -3  -1  -6 1013.90   44.60
   3   1   6 1041.80   42.60
   3   1   6 1055.99   44.80
  -4  -1  -6  582.64   29.40
  -4  -1  -6  561.14   39.00
   4   1   6  534.95   30.90
   4   1   6  576.64   26.70
  -5  -1  -6  408.76   20.40
  -5  -1  -6  410.46   24.00
  -5  -1  -6  322.17   34.10
   5   1   6  380.96   20.60
  -6  -1  -6   79.19   14.00
   6   1   6  122.39    8.90
   5  -2  -6   37.70    6.10
   5  -2  -6   28.40    9.00
  -5   2   6   51.49   10.10
  -5   2   6   24.00    5.70
   4  -2  -6  759.52   40.90
   4  -2  -6  773.12   34.20
  -4   2   6  768.62   33.50
  -4   2   6  737.13   37.80
   3  -2  -6 1270.17   51.79
   3  -2  -6 1299.57   52.99
   3  -2  -6 1240.68   56.69
  -3   2   6 1292.67   50.79
  -3   2   6 1266.97   65.49
   2  -2  -6 5169.18  181.98
   2  -2  -6 4889.51  181.98
  -2   2   6 4564.34  191.28
  -2   2   6 4967.00  180.78
  -2   2   6 5036.40  183.98
   1  -2  -6 4373.86  162.48
  -1   2   6 4395.46  161.28
  -1   2   6 4463.05  169.28
   0  -2  -6   97.69   10.30
   0  -2  -6   93.69    6.40
   0   2   6  102.89   10.40
   1   2   6 7006.20  255.27
  -2  -2  -6 4243.98  183.78
  -2  -2  -6 5150.38  182.48
  -2  -2  -6 4578.64  175.48
   2   2   6 4643.84  173.68
   2   2   6 4970.60  173.58
  -3  -2  -6  515.75   42.00
  -3  -2  -6  443.86   23.60
   3   2   6  487.35   22.90
   3   2   6  453.25   21.90
  -4  -2  -6  685.13   34.00
  -4  -2  -6  695.43   46.20
   4   2   6  687.63   31.10
  -5  -2  -6  829.02   36.00
  -5  -2  -6  795.32   40.10
  -5  -2  -6  793.82   74.99
   5   2   6  836.22   38.00
   5   2   6  808.12   36.20
  -6  -2  -6  117.09   12.10
  -6  -2  -6  111.19    9.40
   6   2   6  118.89   10.00
   5  -3  -6  487.55   31.30
   5  -3  -6  469.65   26.30
  -5   3   6  483.35   23.40
  -5   3   6  491.55   28.00
   4  -3  -6  760.72   35.40
  -4   3   6  800.52   39.30
  -4   3   6  794.82   34.30
   3  -3  -6  134.09   11.70
   3  -3  -6  159.58   14.20
   3  -3  -6  117.19   14.20
   3  -3  -6  128.89    9.80
  -3   3   6  111.29    8.70
  -3   3   6  122.19   11.00
   2  -3  -6  882.61   37.20
   2  -3  -6  880.21   37.90
   2  -3  -6  992.30   45.70
  -2   3   6  878.51   39.50
  -2   3   6  921.01   36.70
   1  -3  -6 2605.64  102.09
   1  -3  -6 2456.75   94.49
  -1   3   6 2453.75   94.49
  -1   3   6 2440.46   92.49
   0  -3  -6 1439.56   56.49
   0  -3  -6 1469.95   64.59
   0   3   6 1488.15   57.19
  -2  -3  -6 1844.82   83.79
  -2  -3  -6 1908.61   71.79
  -2  -3  -6 1880.71   74.29
   2   3   6 1907.41   72.49
   2   3   6 1915.61   72.99
  -3  -3  -6  210.98   14.20
  -3  -3  -6  214.88   19.90
   3   3   6  180.48   15.70
   3   3   6  215.48   12.10
  -4  -3  -6  515.75   28.00
  -4  -3  -6  544.75   52.79
   4   3   6  506.95   24.70
  -5  -3  -6   85.79   12.30
  -5  -3  -6  107.69    9.70
  -5  -3  -6   97.09   21.40
   5   3   6  104.09   10.20
   5   3   6   91.19    8.20
  -6  -3  -6  290.27   16.50
   6   3   6  308.37   14.00
   5  -4  -6  191.98   13.40
  -5   4   6  248.18   17.60
   4  -4  -6   94.19   13.80
   4  -4  -6  105.39    9.30
  -4   4   6   73.99    9.20
  -4   4   6   99.39   11.30
   3  -4  -6   77.99   10.70
   3  -4  -6   44.40   11.40
   3  -4  -6   78.79    8.10
   3  -4  -6   72.59    7.30
  -3   4   6   65.89    9.60
  -3   4   6   70.39    7.30
   2  -4  -6  340.37   24.70
  -2   4   6  297.87   15.00
  -2   4   6  325.27   18.20
   1  -4  -6 5075.99  187.18
   1  -4  -6 4968.20  187.88
   1  -4  -6 5525.25  199.38
  -1   4   6 4852.81  187.68
  -1   4   6 4978.20  188.08
   0  -4  -6 1806.62   76.49
   0   4   6 1535.75   66.09
   0   4   6 1795.22   66.19
  -1  -4  -6 2561.04  101.49
  -1  -4  -6 2314.67   87.99
   1   4   6 2323.67   88.69
   1   4   6 2202.88   89.19
  -2  -4  -6 1225.68   52.69
  -2  -4  -6 1292.47   63.49
   2   4   6 1329.17   52.19
  -3  -4  -6  773.92   45.20
   3   4   6  773.22   32.80
   3   4   6  740.13   34.30
  -4  -4  -6  826.52   52.59
   4   4   6  837.42   35.80
   4   4   6  819.42   38.30
  -5  -4  -6  116.29   10.00
   5   4   6   86.39    7.50
   5  -5  -6    3.80    2.60
  -5   5   6   -1.80    3.80
   4  -5  -6  582.54   36.00
   4  -5  -6  581.94   29.10
  -4   5   6  627.54   32.70
   3  -5  -6  290.37   17.10
   3  -5  -6  288.77   28.40
   3  -5  -6  284.17   16.60
  -3   5   6  290.17   19.30
   2  -5  -6  881.71   38.90
   2  -5  -6  940.81   51.19
   2  -5  -6  886.51   38.30
  -2   5   6  871.21   40.20
   1  -5  -6 1367.46   54.79
   1  -5  -6 1382.66   67.09
   1  -5  -6 1361.26   55.59
  -1   5   6 1379.86   55.79
   0  -5  -6  372.26   26.90
   0  -5  -6  343.37   16.80
   0  -5  -6  339.27   17.90
   0   5   6  341.67   16.70
   0   5   6  336.77   17.90
   0   5   6  361.66   17.50
  -1  -5  -6  324.67   25.90
   1   5   6  349.87   18.00
   1   5   6  357.36   18.00
  -2  -5  -6  312.57   26.70
  -2  -5  -6  303.87   15.50
   2   5   6  311.07   15.60
   2   5   6  327.87   17.70
  -3  -5  -6   82.69    7.60
  -3  -5  -6   60.79   14.50
  -3  -5  -6   84.69   14.10
   3   5   6   92.89    8.90
   3   5   6   87.09    6.80
  -4  -5  -6 1564.14   83.09
  -4  -5  -6 1578.34   63.19
   4   5   6 1561.34   61.49
   4   5   6 1587.94   66.39
  -5  -5  -6  139.09   10.70
   5   5   6  116.29   11.20
   5  -6  -6    9.10    3.50
  -5   6   6   14.80    5.70
   4  -6  -6  138.79   21.40
   4  -6  -6  144.79   13.40
  -4   6   6  141.39   13.60
  -4   6   6  135.89   16.00
   3  -6  -6  153.68   11.80
   3  -6  -6  134.09   11.40
  -3   6   6  129.99   12.40
   2  -6  -6   56.89    6.90
   2  -6  -6   61.99    7.50
   2  -6  -6   45.60   13.10
  -2   6   6   51.39    8.20
   1  -6  -6  149.09   18.80
   1  -6  -6  138.59   10.60
   1  -6  -6  149.19   10.70
  -1   6   6  168.58   11.70
  -1   6   6  153.08   11.60
   0  -6  -6  540.75   36.50
   0  -6  -6  521.75   24.00
   0   6   6  504.15   25.60
  -1  -6  -6  229.88   12.90
  -1  -6  -6  243.38   23.70
   1   6   6  219.08   14.40
   1   6   6  241.78   13.10
  -2  -6  -6  410.56   37.30
  -2  -6  -6  471.85   21.50
   2   6   6  451.65   23.80
   2   6   6  451.15   20.60
  -3  -6  -6   18.40    4.60
  -3  -6  -6   27.90   10.80
   3   6   6   19.90    6.50
   3   6   6   23.40    4.60
  -4  -6  -6 1366.36   55.49
  -4  -6  -6 1347.27   75.89
   4   6   6 1341.47   58.79
  -5  -6  -6  172.88   11.50
   5   6   6  156.58   12.70
   4  -7  -6   20.90    4.80
   4  -7  -6    4.00    7.40
  -4   7   6   22.50    7.80
  -4   7   6   24.80    6.70
   3  -7  -6  138.29   11.50
   3  -7  -6  139.99   12.20
  -3   7   6  143.09   13.20
   2  -7  -6  558.24   29.10
   2  -7  -6  573.04   28.00
  -2   7   6  560.94   29.00
   1  -7  -6  612.14   34.20
   1  -7  -6  571.34   29.30
  -1   7   6  638.84   31.00
  -1   7   6  645.34   30.00
   0  -7  -6  942.11   39.80
   0   7   6  945.61   40.00
   0   7   6  909.51   42.00
  -1  -7  -6 1040.00   43.00
   1   7   6 1020.40   45.90
  -2  -7  -6  473.15   23.00
   2   7   6  489.45   26.20
  -3  -7  -6  436.96   21.80
  -3  -7  -6  421.56   35.40
   3   7   6  430.76   24.70
  -4  -7  -6   21.00    5.10
   4   7   6   18.80    5.70
   4  -8  -6  249.28   14.90
   3  -8  -6  142.79   11.70
   3  -8  -6  137.19   11.60
  -3   8   6  149.49   16.20
  -3   8   6  142.89   12.20
   2  -8  -6  566.24   28.60
  -2   8   6  576.14   28.80
   1  -8  -6  169.18   12.50
  -1   8   6  166.28   11.80
  -1   8   6  160.48   13.40
   0  -8  -6  357.76   19.40
   0   8   6  332.17   17.50
   0   8   6  372.96   21.70
   0   8   6  370.46   26.00
  -1  -8  -6  191.08   13.10
   1   8   6  190.78   15.00
   1   8   6  199.78   18.40
  -2  -8  -6  337.77   18.40
   2   8   6  339.47   21.40
  -4  -8  -6   59.69    7.20
   4   8   6   59.89    9.20
   3  -9  -6  450.25   22.00
  -3   9   6  430.06   27.40
  -3   9   6  402.26   20.60
   2  -9  -6   35.50    7.30
  -2   9   6   44.70   10.60
  -2   9   6   36.60    6.00
   1  -9  -6 1666.43   67.99
  -1   9   6 1655.73   70.09
  -1   9   6 1670.83   76.79
   0  -9  -6    7.70    4.30
   0   9   6    6.80    6.30
   0   9   6   12.00    5.50
  -1  -9  -6 1007.10   42.40
   1   9   6  966.80   49.10
   1   9   6  950.40   45.30
  -2  -9  -6  223.58   14.20
   2   9   6  226.98   16.90
  -3  -9  -6   28.90    5.40
   3   9   6   32.60    7.30
   2 -10  -6  107.89    9.90
  -2  10   6  129.79   14.60
   1 -10  -6   58.69    8.30
  -1  10   6   61.29    9.20
  -1  10   6   49.80   10.50
   0 -10  -6   26.80    5.60
   0  10   6   41.60   10.70
   0  10   6   40.90    7.90
  -1 -10  -6  375.76   19.60
   1  10   6  359.86   24.70
   1  10   6  326.07   20.90
  -2 -10  -6   34.60    5.90
   2  10   6   43.40    8.00
   1   9  -7  200.28   18.40
   0   9  -7   18.40    7.40
   0   9  -7   41.90   10.70
  -1   9  -7   79.79   13.50
  -1   9  -7   52.59    9.80
  -2   9  -7   91.69   13.90
   2  -9   7   78.19    7.90
   3   8  -7   17.90    5.70
   2   8  -7   61.39    9.80
   2   8  -7  100.49   12.30
   2   8  -7   81.09   10.30
   1   8  -7  304.47   21.00
   1   8  -7  324.07   18.90
   0   8  -7   22.20    6.40
   0   8  -7   32.10   10.10
  -1   8  -7   53.49   11.60
  -2   8  -7  289.87   18.90
  -2   8  -7  290.17   23.40
   2  -8   7  273.67   16.40
  -3   8  -7  302.27   24.30
  -3   8  -7  204.48   18.00
   3  -8   7  215.38   14.10
   3   7  -7  373.16   21.50
   2   7  -7  669.43   32.50
   2   7  -7  612.14   30.40
   1   7  -7  480.05   26.00
   1   7  -7  466.35   30.50
   1   7  -7  472.85   24.60
   0   7  -7  147.99   17.50
   0   7  -7  153.28   12.00
   0   7  -7  157.58   13.40
   0  -7   7  132.29    9.60
  -1   7  -7   34.10    9.80
  -1   7  -7   31.80    7.60
   1  -7   7   25.60    4.90
  -2   7  -7 1018.90   45.50
  -2   7  -7 1052.49   52.39
   2  -7   7  882.51   41.70
  -3   7  -7  110.69   11.50
  -3   7  -7   82.79   13.60
   3  -7   7  112.59   10.20
  -4   7  -7  103.29   10.70
   4  -7   7  106.29    9.50
   4   6  -7   10.60    4.90
  -4  -6   7   15.30    6.20
   3   6  -7  304.77   19.30
   3   6  -7  290.37   17.90
   3   6  -7  281.27   25.00
   2   6  -7  236.98   16.50
   2   6  -7  219.58   19.10
   2   6  -7  223.98   15.10
   1   6  -7 2148.49   85.39
   1   6  -7 2250.17   94.29
  -1  -6   7 2124.29   92.29
   0   6  -7   25.30    6.40
   0   6  -7   20.80    8.40
   0   6  -7   15.80    4.60
   0  -6   7   21.60    4.20
   0  -6   7   23.20   10.60
   0  -6   7    9.30    6.40
  -1   6  -7 1546.05   61.39
  -1   6  -7 1541.55   66.49
  -1   6  -7 1441.46   69.59
   1  -6   7 1494.75   59.89
  -2   6  -7   20.50    6.60
  -2   6  -7   14.80    7.80
  -2   6  -7   14.10    3.00
   2  -6   7   17.10    4.80
  -3   6  -7  400.46   20.10
  -3   6  -7  400.46   27.50
   3  -6   7  436.36   22.60
  -4   6  -7  264.07   15.30
   4  -6   7  300.47   17.00
   4   5  -7  669.13   33.30
   4   5  -7  755.42   36.10
  -4  -5   7  769.92   31.40
   3   5  -7   91.19   10.40
   3   5  -7   48.10    9.70
   3   5  -7   61.89   13.20
   3   5  -7   83.49    8.80
  -3  -5   7   68.89    6.30
   2   5  -7 3251.67  130.69
   2   5  -7 3371.96  126.89
   2   5  -7 3412.96  131.99
   2   5  -7 3214.18  124.09
  -2  -5   7 2999.50  142.69
   1   5  -7  582.64   32.60
   1   5  -7  563.34   31.50
   1   5  -7  564.44   28.40
  -1  -5   7  541.65   31.00
  -1  -5   7  566.94   38.30
   0   5  -7  162.08   12.00
   0   5  -7  135.19   14.00
   0   5  -7  146.69   10.70
   0  -5   7  132.19    8.50
   0  -5   7  140.89   13.30
  -1   5  -7   90.89    9.70
  -1   5  -7  102.39   12.60
   1  -5   7   81.09   10.90
   1  -5   7   94.69    7.50
  -2   5  -7 1436.96   55.79
  -2   5  -7 1380.56   64.59
   2  -5   7 1390.96   56.89
  -3   5  -7 1786.92   78.49
  -3   5  -7 1766.32   71.69
   3  -5   7 1815.82   72.09
  -4   5  -7   99.79   10.10
   4  -5   7  104.69   12.10
   4  -5   7  102.59    9.90
  -5   5  -7   15.90    4.70
   5  -5   7   13.40    5.40
   5  -5   7   12.90    4.20
   5   4  -7  481.35   24.70
   5   4  -7  366.66   21.50
  -5  -4   7  459.55   20.80
   4   4  -7  388.26   24.10
   4   4  -7  415.76   22.50
   4   4  -7  432.56   29.20
  -4  -4   7  439.76   20.40
   3   4  -7  132.49   10.80
   3   4  -7  157.08   15.60
   3   4  -7  144.89   12.50
   3   4  -7  120.19   13.60
  -3  -4   7  139.89    8.70
   2   4  -7   47.50    8.10
   2   4  -7   46.30    7.60
   2   4  -7   54.79    9.80
  -2  -4   7   57.49   10.30
   1   4  -7 1198.58   52.99
   1   4  -7 1164.48   49.60
  -1  -4   7 1151.08   52.99
   0   4  -7   26.70    5.50
   0   4  -7   26.90    6.20
   0   4  -7   24.40    7.30
   0   4  -7   17.50    4.70
   0  -4   7   23.60    3.50
   0  -4   7   27.20    6.50
  -1   4  -7  673.43   27.00
   1  -4   7  629.14   27.80
   1  -4   7  671.83   34.10
  -2   4  -7   44.80    9.30
  -2   4  -7   37.60    5.60
   2  -4   7   45.50    6.40
   2  -4   7   40.00    8.20
  -3   4  -7  256.27   19.80
   3  -4   7  252.67   15.50
  -4   4  -7  108.59   10.70
   4  -4   7  110.99   10.10
   4  -4   7  111.39   10.30
  -5   4  -7  120.89   11.10
   5  -4   7   88.19   10.70
   5  -4   7  124.89   10.10
   5   3  -7  292.77   19.50
   5   3  -7  273.27   17.00
  -5  -3   7  310.97   16.20
   4   3  -7  145.89   13.20
   4   3  -7  134.69   15.70
   4   3  -7  140.39   11.30
  -4  -3   7  140.69    9.80
   3   3  -7   62.19    7.00
   3   3  -7   47.80    9.40
   3   3  -7   61.49    9.80
   3   3  -7   72.79    8.40
  -3  -3   7   64.89    5.80
   2   3  -7  249.88   15.20
   2   3  -7  251.87   17.30
   2   3  -7  222.18   13.10
  -2  -3   7  220.98   11.10
  -2  -3   7  240.48   18.40
   1   3  -7 1742.43   69.79
   1   3  -7 1674.63   70.69
   1   3  -7 1606.44   66.69
   0   3  -7  107.29    7.00
   0   3  -7   76.29    8.40
   0   3  -7   70.89    9.30
   0   3  -7   84.19    7.80
   0  -3   7   97.69    9.70
  -1   3  -7 2198.88   88.19
  -1   3  -7 2181.28   81.49
   1  -3   7 2089.09   81.39
   1  -3   7 2161.48   87.29
  -2   3  -7  224.18   13.70
  -2   3  -7  238.28   17.00
   2  -3   7  240.78   15.10
   2  -3   7  215.58   16.60
  -3   3  -7  277.97   16.50
  -3   3  -7  254.77   25.10
   3  -3   7  249.08   15.20
   3  -3   7  260.67   20.10
   3  -3   7  270.57   15.40
  -4   3  -7  443.96   25.10
  -4   3  -7  408.06   36.00
   4  -3   7  471.85   24.00
   4  -3   7  479.05   23.20
  -5   3  -7  157.78   13.60
   5  -3   7  161.48   12.00
   5   2  -7  340.47   19.10
   5   2  -7  331.77   21.30
  -5  -2   7  341.27   18.10
   4   2  -7  149.19   13.20
   4   2  -7  139.99   11.10
   4   2  -7  137.49   21.80
  -4  -2   7  118.29   22.80
  -4  -2   7  152.38   10.30
   3   2  -7   39.90    4.40
   3   2  -7   41.30    8.30
   3   2  -7   42.70    7.20
  -3  -2   7   51.69   11.30
  -3  -2   7   46.60    5.00
   2   2  -7 1259.37   55.39
   2   2  -7 1300.87   53.29
   2   2  -7 1274.07   50.69
   2   2  -7 1352.26   56.39
  -2  -2   7 1251.67   49.30
  -2  -2   7 1305.17   60.99
   1   2  -7  976.40   46.00
   1   2  -7 1047.10   45.50
   1   2  -7 1105.69   39.70
   0   2  -7 1704.23   67.49
   0   2  -7 1634.54   62.89
   0  -2   7 1691.93   68.49
  -1   2  -7  168.68   13.00
  -1   2  -7  137.39    9.00
  -1   2  -7  172.08   11.80
   1  -2   7  163.78    9.20
   1  -2   7  193.08   13.00
  -2   2  -7   92.19   10.20
  -2   2  -7  103.09   15.80
  -2   2  -7  106.89    8.10
   2  -2   7  100.49    7.80
   2  -2   7  104.59    7.70
  -3   2  -7  107.99   14.70
  -3   2  -7   83.49   11.10
  -3   2  -7  117.99    9.90
   3  -2   7  112.69    8.70
   3  -2   7  106.59   11.80
   3  -2   7  106.19    8.80
  -4   2  -7   80.69    9.80
  -4   2  -7   36.70   19.80
   4  -2   7   80.49   10.30
   4  -2   7   76.09    7.70
  -5   2  -7  758.22   37.50
   5  -2   7  773.12   35.50
  -6   2  -7    2.60    3.40
   6  -2   7    3.00    2.90
   5   1  -7  300.07   26.50
   5   1  -7  426.66   20.80
   4   1  -7   55.99   12.50
   4   1  -7   73.49   10.80
   4   1  -7   75.99    5.90
  -4  -1   7   76.99    7.60
   3   1  -7  226.38   15.20
   3   1  -7  227.28   17.60
   3   1  -7  267.47   12.60
  -3  -1   7  238.88   21.30
  -3  -1   7  254.67   13.10
   2   1  -7 2886.51  110.19
   2   1  -7 2745.33  107.59
   2   1  -7 2888.71  104.59
   2   1  -7 2927.51  110.79
  -2  -1   7 2703.33  104.39
  -2  -1   7 2761.22  111.69
   1   1  -7 2082.29   83.39
   1   1  -7 2180.68   85.49
   1   1  -7 2316.37   81.29
  -1  -1   7 2136.39   86.99
   0   1  -7 6333.87  235.58
   0   1  -7 6433.26  234.08
   0  -1   7 6519.05  248.18
  -1   1  -7  368.56   21.10
  -1   1  -7  374.76   19.30
   1  -1   7  462.15   21.60
  -2   1  -7  139.49   11.50
  -2   1  -7  150.48   10.30
  -2   1  -7  150.68   12.90
   2  -1   7  159.48   12.00
   2  -1   7  155.98    9.60
   2  -1   7  164.98    9.40
  -3   1  -7   57.39   11.00
  -3   1  -7   64.29    7.10
  -3   1  -7   76.69    8.00
   3  -1   7   68.89    9.00
   3  -1   7   70.19    6.70
   3  -1   7   71.89    7.40
  -4   1  -7   40.60    6.70
  -4   1  -7   31.10   10.80
  -4   1  -7   52.29   13.70
   4  -1   7   43.20    8.00
   4  -1   7   40.30    6.10
  -5   1  -7  244.98   30.00
  -5   1  -7  307.17   20.10
   5  -1   7  337.27   18.40
  -6   1  -7  340.57   20.10
   6  -1   7  330.87   17.90
   5   0  -7  126.79   16.10
   5   0  -7  108.59    9.70
  -5   0   7  110.79   10.10
   4   0  -7  606.74   30.40
   4   0  -7  590.94   26.00
   4   0  -7  593.84   34.10
  -4   0   7  600.14   26.90
  -4   0   7  485.05   41.60
   3   0  -7  186.68   12.90
   3   0  -7  172.78   10.40
  -3   0   7  175.88   10.70
  -3   0   7  182.28   18.70
   2   0  -7  562.94   23.40
   2   0  -7  549.35   25.20
   2   0  -7  570.44   27.70
  -2   0   7  513.35   29.20
  -2   0   7  522.95   22.70
   1   0  -7 4973.30  172.78
   1   0  -7 4368.06  169.88
  -1   0   7 4448.55  168.08
  -1   0   7 4627.04  174.08
   0   0  -7  517.15   25.90
   0   0  -7  560.14   24.60
   0   0   7  553.74   29.90
  -2   0  -7  896.11   40.70
  -2   0  -7  794.32   33.80
  -2   0  -7  867.41   36.50
   2   0   7  876.41   37.80
   2   0   7  877.81   34.80
   2   0   7  807.82   35.10
  -3   0  -7  368.26   22.00
  -3   0  -7  292.87   23.00
  -3   0  -7  307.57   15.40
   3   0   7  313.17   18.40
   3   0   7  297.47   15.40
  -4   0  -7  161.78   10.70
  -4   0  -7  154.38   12.50
  -4   0  -7  140.59   18.90
   4   0   7  145.59   11.00
   4   0   7  132.39   14.80
  -5   0  -7  955.10   44.80
  -5   0  -7  898.41   39.70
   5   0   7  985.60   42.10
  -6   0  -7   34.70    7.20
   6   0   7   27.80    4.90
   6   0   7   23.80    5.00
   5  -1  -7  154.98   19.30
   5  -1  -7  161.98   11.10
  -5   1   7  169.68   14.90
  -5   1   7  199.68   16.90
   4  -1  -7 1263.07   59.29
   4  -1  -7 1286.07   54.19
   4  -1  -7 1200.38   50.49
  -4   1   7 1170.88   54.59
  -4   1   7 1242.48   50.69
   3  -1  -7  686.33   30.00
   3  -1  -7  701.03   32.00
  -3   1   7  659.23   32.80
  -3   1   7  690.23   29.50
  -3   1   7  682.13   43.70
   2  -1  -7 1810.82   71.29
   2  -1  -7 1896.11   70.49
   2  -1  -7 1841.82   74.79
   2  -1  -7 1927.21   74.69
  -2   1   7 1833.62   69.49
  -2   1   7 1671.23   77.79
   1  -1  -7 1273.77   52.49
   1  -1  -7 1276.37   56.29
  -1   1   7 1312.87   55.79
   0  -1  -7 1083.89   44.90
   0  -1  -7 1118.99   52.09
   0  -1  -7 1092.59   45.10
   0  -1  -7 1250.57   49.99
   0   1   7 1154.28   52.09
  -1  -1  -7  642.64   26.20
  -1  -1  -7  669.23   27.70
  -1  -1  -7  615.64   35.00
   1   1   7  623.24   26.10
   1   1   7  653.83   28.30
  -2  -1  -7 1092.59   47.80
  -2  -1  -7  989.00   40.50
  -2  -1  -7 1043.40   43.00
   2   1   7 1039.50   42.90
   2   1   7  979.30   41.40
  -3  -1  -7 1305.17   52.29
  -3  -1  -7 1353.76   63.69
   3   1   7 1349.27   53.39
   3   1   7 1279.87   55.19
  -4  -1  -7  849.41   36.60
  -4  -1  -7  831.32   40.20
  -4  -1  -7  915.21   53.29
   4   1   7  843.12   37.70
  -5  -1  -7  114.39   10.00
  -5  -1  -7  125.09   12.40
  -5  -1  -7  119.49   23.50
   5   1   7  114.19    9.90
  -6  -1  -7  259.47   18.90
   6   1   7  251.37   14.30
   6   1   7  253.97   15.30
   5  -2  -7   31.10    9.10
  -5   2   7   42.50    9.20
  -5   2   7   27.80    6.20
   4  -2  -7  111.09    9.20
   4  -2  -7  106.89   16.20
  -4   2   7  106.69   11.70
  -4   2   7  112.09    9.60
   3  -2  -7  771.52   38.50
   3  -2  -7  781.62   34.40
   3  -2  -7  770.32   33.10
  -3   2   7  754.32   32.10
  -3   2   7  710.63   38.80
  -3   2   7  706.33   44.50
   2  -2  -7 2453.45   92.69
   2  -2  -7 2424.16   96.29
   2  -2  -7 2426.26   98.69
   2  -2  -7 2457.65   92.49
  -2   2   7 2374.66   91.19
   1  -2  -7  318.47   15.80
   1  -2  -7  325.17   21.10
   1  -2  -7  341.97   17.80
  -1   2   7  330.37   16.50
   0  -2  -7 7144.19  253.57
   0   2   7 6724.23  253.17
  -1  -2  -7  243.38   10.40
  -1  -2  -7  231.18   19.10
  -1  -2  -7  214.98   12.50
   1   2   7  231.18   15.70
   1   2   7  237.18   12.40
  -2  -2  -7 2763.42  101.49
  -2  -2  -7 2963.10  110.79
  -2  -2  -7 2694.73  103.89
  -2  -2  -7 2284.07  112.49
   2   2   7 2848.42  102.49
   2   2   7 2842.22  102.29
   2   2   7 2579.14  101.59
  -3  -2  -7 1471.65   68.49
  -3  -2  -7 1400.16   56.09
  -3  -2  -7 1404.96   63.29
   3   2   7 1446.26   57.19
   3   2   7 1412.46   57.49
  -4  -2  -7  389.86   22.70
  -4  -2  -7  317.67   33.20
   4   2   7  438.96   21.10
   4   2   7  420.56   21.50
  -5  -2  -7  389.06   24.00
  -5  -2  -7  396.26   20.20
  -5  -2  -7  359.26   34.60
   5   2   7  372.96   20.30
   5   2   7  396.26   21.60
  -6  -2  -7   48.70    8.10
  -6  -2  -7   42.00    6.90
   6   2   7   51.69    9.50
   6   2   7   40.20    5.50
   5  -3  -7    8.10    3.70
  -5   3   7    6.50    4.80
  -5   3   7   16.60    6.40
   4  -3  -7   30.50    5.80
  -4   3   7   40.80    8.70
  -4   3   7   31.80    6.10
   3  -3  -7 1190.88   64.79
   3  -3  -7 1294.57   58.29
   3  -3  -7 1266.87   52.49
  -3   3   7 1252.17   50.89
  -3   3   7 1350.06   55.79
   2  -3  -7 4813.52  181.88
   2  -3  -7 4499.15  172.88
   2  -3  -7 4845.72  176.88
   2  -3  -7 4497.35  171.18
   2  -3  -7 4476.85  172.08
  -2   3   7 4579.04  170.68
  -2   3   7 4728.03  174.58
   1  -3  -7 4371.56  156.48
   1  -3  -7 4125.19  154.18
   1  -3  -7 4418.76  164.08
  -1   3   7 4037.70  152.48
  -1   3   7 3801.72  154.38
   0  -3  -7    1.20    1.60
   0  -3  -7   -3.00    1.30
   0  -3  -7    1.10    3.50
   0   3   7   -1.40    1.30
  -1  -3  -7 1112.59   54.29
  -1  -3  -7 1065.19   44.70
   1   3   7 1117.09   43.00
   1   3   7 1102.99   42.70
  -2  -3  -7 1654.73   61.69
  -2  -3  -7 1669.83   80.19
  -2  -3  -7 1479.65   58.59
   2   3   7 1551.64   59.49
   2   3   7 1512.95   59.49
   2   3   7 1289.77   55.59
  -3  -3  -7  188.58   14.10
  -3  -3  -7  202.58   19.90
  -3  -3  -7  185.98   11.40
   3   3   7  195.38   11.80
  -4  -3  -7 1019.40   63.89
  -4  -3  -7 1179.88   48.30
  -4  -3  -7 1204.78   52.19
   4   3   7 1219.48   50.19
   4   3   7 1187.08   48.80
  -5  -3  -7  997.00   52.99
  -5  -3  -7 1065.09   44.40
   5   3   7 1040.60   46.10
   5   3   7 1049.99   44.20
  -6  -3  -7   98.29    8.70
   6   3   7  102.89   10.40
   5  -4  -7  424.26   21.20
  -5   4   7  383.66   24.00
   4  -4  -7  470.75   31.00
   4  -4  -7  501.35   25.10
  -4   4   7  468.15   22.90
  -4   4   7  492.65   28.10
   3  -4  -7  581.74   33.10
   3  -4  -7  561.84   38.50
   3  -4  -7  589.84   28.00
   3  -4  -7  568.24   26.80
  -3   4   7  578.44   25.90
  -3   4   7  604.14   30.60
   2  -4  -7  351.36   25.70
   2  -4  -7  315.27   16.60
   2  -4  -7  326.17   20.50
   2  -4  -7  321.77   17.20
  -2   4   7  295.87   15.40
  -2   4   7  304.07   18.50
   1  -4  -7  927.71   38.20
   1  -4  -7  839.92   50.79
   1  -4  -7  907.21   38.80
  -1   4   7  998.30   36.80
  -1   4   7  961.40   38.70
  -1   4   7  905.41   39.20
   0  -4  -7   46.00    5.20
   0  -4  -7   37.40    9.10
   0  -4  -7   33.40    4.90
   0  -4  -7   35.70    4.80
   0   4   7   55.49    5.90
   0   4   7   41.10    5.60
  -1  -4  -7 2489.55  102.19
  -1  -4  -7 2753.32  114.89
  -1  -4  -7 2736.03  100.79
   1   4   7 2686.43  101.79
   1   4   7 2770.02  101.59
  -2  -4  -7  351.16   28.40
  -2  -4  -7  386.56   20.40
   2   4   7  407.56   20.80
   2   4   7  409.96   19.70
  -3  -4  -7  248.58   23.20
  -3  -4  -7  230.68   13.50
   3   4   7  236.28   13.70
   3   4   7  243.98   14.70
  -4  -4  -7  230.98   25.60
  -4  -4  -7  233.68   14.40
   4   4   7  230.18   13.80
   4   4   7  222.38   15.50
  -5  -4  -7  183.08   12.60
   5   4   7  175.38   11.00
   5   4   7  182.48   13.70
   5  -5  -7    6.90    3.00
  -5   5   7    6.30    5.30
   4  -5  -7  235.38   21.00
   4  -5  -7  236.38   15.40
  -4   5   7  221.18   17.60
   3  -5  -7  210.18   18.70
   3  -5  -7  221.48   14.30
   3  -5  -7  217.48   14.40
  -3   5   7  209.08   16.10
   2  -5  -7  488.05   24.10
   2  -5  -7  485.55   34.70
   2  -5  -7  512.45   23.90
  -2   5   7  463.05   25.40
   1  -5  -7   16.20    4.20
   1  -5  -7   25.80    8.00
   1  -5  -7   13.10    4.10
   0  -5  -7    4.90    2.60
   0  -5  -7    4.70    2.60
   0  -5  -7    4.30    4.50
   0  -5  -7    3.00    2.60
   0   5   7    4.90    2.40
   0   5   7    1.50    3.20
   0   5   7    2.40    2.30
  -1  -5  -7  360.76   28.60
  -1  -5  -7  368.06   19.40
   1   5   7  395.56   20.50
   1   5   7  379.26   19.30
  -2  -5  -7  996.50   41.00
  -2  -5  -7  932.31   55.59
   2   5   7 1078.89   41.70
   2   5   7  979.10   42.80
  -3  -5  -7  289.97   29.40
  -3  -5  -7  362.46   30.50
   3   5   7  375.56   20.70
   3   5   7  382.66   18.40
  -4  -5  -7  605.24   45.50
  -4  -5  -7  681.23   30.30
   4   5   7  646.64   28.80
   4   5   7  657.53   32.40
  -5  -5  -7   55.69    7.20
   5   5   7   49.50    8.20
   4  -6  -7  252.87   22.60
   4  -6  -7  294.77   17.50
  -4   6   7  317.17   22.20
   3  -6  -7  656.23   30.90
   3  -6  -7  663.93   32.00
   3  -6  -7  626.24   37.40
  -3   6   7  693.23   34.50
   2  -6  -7    4.10    3.00
   2  -6  -7    4.10    4.40
   1  -6  -7 1973.40   78.29
  -1   6   7 2035.80   80.29
  -1   6   7 1979.40   79.59
   0  -6  -7  925.31   53.29
   0  -6  -7  884.91   37.50
   0  -6  -7  803.92   37.80
   0  -6  -7  874.81   38.80
   0   6   7  923.31   38.20
   0   6   7  900.01   39.30
  -1  -6  -7  386.86   18.90
  -1  -6  -7  396.56   32.50
   1   6   7  390.76   19.10
   1   6   7  348.87   20.10
  -2  -6  -7    4.90    3.20
  -2  -6  -7   -0.90    7.20
   2   6   7    0.70    2.60
   2   6   7    4.60    2.20
  -3  -6  -7   84.29    8.30
  -3  -6  -7   85.89   16.50
   3   6   7   80.49    6.70
   3   6   7   73.69    8.80
  -4  -6  -7    1.90    3.60
   4   6   7    3.40    4.30
  -5  -6  -7  123.19    9.80
   5   6   7  116.49   10.70
   4  -7  -7  364.46   20.30
  -4   7   7  379.56   24.50
  -4   7   7  403.76   22.80
   3  -7  -7  364.06   19.90
   3  -7  -7  303.67   24.70
   3  -7  -7  347.77   20.00
  -3   7   7  358.36   22.00
   2  -7  -7   26.50    5.50
   2  -7  -7   26.80    6.20
  -2   7   7   16.90    5.60
   1  -7  -7   55.29    8.20
   1  -7  -7   63.69    7.80
  -1   7   7   64.09    7.90
   0  -7  -7  455.85   26.40
   0   7   7  414.96   23.40
   0   7   7  428.26   22.10
   1   7   7  149.19   12.60
  -2  -7  -7  615.44   27.70
   2   7   7  600.54   30.20
   2   7   7  552.24   25.00
  -3  -7  -7  182.68   12.70
  -3  -7  -7  216.58   37.00
   3   7   7  170.88   14.20
  -4  -7  -7   56.79    7.70
   4   7   7   67.59    9.80
   3  -8  -7   28.20    6.30
   3  -8  -7   19.50    5.20
  -3   8   7   24.50    6.30
  -3   8   7   27.00    9.10
   2  -8  -7   76.79    9.70
   2  -8  -7  103.89   10.50
   2  -8  -7   82.79   13.70
  -2   8   7   97.49   10.10
   1  -8  -7  879.41   40.00
  -1   8   7  898.21   40.20
  -1   8   7  917.51   42.00
   0  -8  -7   88.19    9.20
   0   8   7   85.89    7.90
   0   8   7   93.19   10.10
  -1  -8  -7  641.94   29.70
   1   8   7  576.84   31.50
   1   8   7  667.13   36.30
  -2  -8  -7  797.52   35.90
   2   8   7  815.72   39.00
  -3  -8  -7  113.59   10.20
   3   8   7  127.89   12.00
  -4  -8  -7  113.49    9.20
   4   8   7  110.89   10.60
   3  -9  -7   20.00    5.90
  -3   9   7   14.80    4.10
   2  -9  -7   26.20    6.30
  -2   9   7   24.90    9.10
  -2   9   7   24.80    5.10
   1  -9  -7  347.27   20.70
  -1   9   7  453.95   36.70
  -1   9   7  331.47   18.60
  -1   9   7  383.16   25.00
   0  -9  -7    6.70    4.10
   0   9   7    9.00    7.20
   0   9   7    7.60    4.60
  -1  -9  -7 1047.00   45.30
   1   9   7 1060.59   48.10
  -2  -9  -7   16.30    4.90
   2   9   7   30.80    7.20
  -3  -9  -7  610.24   27.80
   3   9   7  594.34   30.30
   2 -10  -7  324.77   20.50
  -2  10   7  309.47   22.50
   1 -10  -7  140.39   11.40
  -1  10   7  143.79   15.90
   0 -10  -7 1137.39   48.00
   0  10   7 1112.29   49.80
   0  10   7 1151.28   55.39
  -1 -10  -7  143.39   10.90
   1  10   7  120.69   11.40
   1  10   7   88.99   18.70
  -2 -10  -7   78.39    8.20
   2  10   7   83.49    9.10
   1   9  -8   42.70   16.40
   1   9  -8   20.50    7.20
   0   9  -8   -5.80    5.60
   0   9  -8   -6.30    5.70
  -1   9  -8  107.99   11.70
  -1   9  -8  140.09   15.30
   2   8  -8  115.29   13.90
   2   8  -8  146.99   12.20
   1   8  -8  203.98   15.30
   1   8  -8  185.68   18.70
   0   8  -8  645.14   31.40
   0   8  -8  605.24   37.00
   0  -8   8  589.44   26.90
  -1   8  -8  533.05   35.60
  -1   8  -8  645.04   31.00
   1  -8   8  577.44   26.90
  -2   8  -8   29.50    7.30
  -2   8  -8   28.20    9.40
   2  -8   8   26.90    5.30
  -3   8  -8   32.00   12.60
  -3   8  -8   30.60    6.70
   3  -8   8   44.70    6.40
   3   7  -8    7.30    4.70
   1   7  -8   21.90    6.60
   1   7  -8   31.30    9.70
   0   7  -8   20.70    6.50
   0   7  -8   22.70    8.90
   0   7  -8   15.80    6.50
   0  -7   8   30.00    4.80
  -1   7  -8  126.79   16.00
  -1   7  -8  135.19   13.30
   1  -7   8  136.09   10.50
  -2   7  -8  787.02   44.40
  -2   7  -8  806.02   39.40
   2  -7   8  826.42   36.30
  -3   7  -8  628.84   32.90
  -3   7  -8  696.63   37.90
   3  -7   8  694.33   31.50
  -4   7  -8  272.17   17.00
   4  -7   8  316.57   18.00
   4   6  -8   78.69    9.40
  -4  -6   8   75.79    7.10
   3   6  -8  179.98   21.80
   3   6  -8  263.77   22.70
   2   6  -8  555.74   32.70
   2   6  -8  589.34   29.80
   2   6  -8  523.85   33.60
   1   6  -8  630.64   31.30
   1   6  -8  563.24   35.20
   0   6  -8  536.15   32.70
   0   6  -8  523.85   27.20
   0   6  -8  406.96   23.40
   0  -6   8  504.95   22.20
  -1   6  -8  647.74   32.60
  -1   6  -8  623.84   37.30
   1  -6   8  621.44   28.40
  -2   6  -8  378.46   22.70
  -2   6  -8  339.67   26.00
   2  -6   8  368.86   19.90
  -3   6  -8  438.56   28.20
  -3   6  -8  351.96   18.50
  -3   6  -8  433.56   24.50
   3  -6   8  442.06   22.60
  -4   6  -8   11.20    5.30
  -4   6  -8   -1.10    2.50
   4  -6   8    2.40    3.60
   4   5  -8  187.28   14.60
  -4  -5   8  189.98   11.30
   3   5  -8  949.01   48.30
   3   5  -8 1100.99   53.89
   3   5  -8 1090.99   48.40
  -3  -5   8 1079.59   49.80
   2   5  -8  502.25   30.60
   2   5  -8  469.45   24.30
   2   5  -8  484.55   32.70
   2   5  -8  533.15   27.30
   1   5  -8  256.17   19.70
   1   5  -8  255.87   20.70
   1   5  -8  289.97   17.80
  -1  -5   8  232.78   21.80
   0   5  -8  425.46   28.00
   0   5  -8  459.35   24.40
   0  -5   8  426.66   29.90
  -1   5  -8  359.36   20.70
  -1   5  -8  379.06   25.40
   1  -5   8  345.77   17.40
   1  -5   8  302.37   23.10
  -2   5  -8 2076.49   81.09
  -2   5  -8 2165.38   86.79
   2  -5   8 2140.89   89.49
  -3   5  -8  108.29   14.20
  -3   5  -8  109.29    9.40
   3  -5   8   89.59    9.60
  -4   5  -8   47.10    8.30
   4  -5   8   53.09   12.60
   4  -5   8   37.00    7.40
  -5   5  -8   36.50    5.60
   5  -5   8   29.50    6.20
   5   4  -8  194.78   14.60
   4   4  -8  450.85   25.30
   4   4  -8  461.35   28.10
   4   4  -8  388.46   34.80
   3   4  -8  275.07   18.20
   3   4  -8  283.97   21.50
   3   4  -8  217.28   18.00
  -3  -4   8  266.67   13.60
   2   4  -8  127.59   11.40
   2   4  -8  121.79   13.30
   2   4  -8  120.49   13.30
   1   4  -8  200.28   15.80
   1   4  -8  192.28   13.50
   1   4  -8  190.88   16.70
  -1  -4   8  182.78   15.80
   0   4  -8  141.79   14.70
   0   4  -8  138.29   12.90
   0   4  -8  148.39   11.50
   0  -4   8  133.09    8.40
   0  -4   8  158.88   14.00
  -1   4  -8  382.36   21.20
  -1   4  -8  380.76   24.80
  -1   4  -8  400.46   18.50
   1  -4   8  391.16   24.40
  -2   4  -8   67.19    6.70
  -2   4  -8   68.99   11.90
   2  -4   8   53.19    9.90
   2  -4   8   59.09    6.80
  -3   4  -8  325.67   24.90
  -3   4  -8  328.97   18.70
   3  -4   8  317.57   18.20
   3  -4   8  315.87   18.30
  -4   4  -8  144.89   12.40
   4  -4   8  147.29   11.50
   4  -4   8  149.29   12.20
  -5   4  -8  261.47   16.10
   5  -4   8  244.48   15.40
   5   3  -8   95.59   11.00
  -5  -3   8   99.79    8.70
   4   3  -8   76.89   13.10
   4   3  -8   65.99   10.10
   4   3  -8   53.59    8.60
  -4  -3   8   69.89    7.10
   3   3  -8  807.92   41.00
   3   3  -8  770.52   36.70
   3   3  -8  742.43   33.40
   3   3  -8  739.93   37.30
  -3  -3   8  759.22   31.80
   2   3  -8 1130.39   48.90
   2   3  -8 1098.29   51.99
   2   3  -8 1175.08   52.19
  -2  -3   8 1136.09   44.80
   1   3  -8  671.33   35.20
   1   3  -8  687.43   34.50
   1   3  -8  725.43   34.20
  -1  -3   8  699.03   35.80
   0   3  -8 4129.39  156.18
   0  -3   8 4012.90  149.69
  -1   3  -8  622.54   33.80
  -1   3  -8  517.75   23.60
   1  -3   8  543.35   24.00
   1  -3   8  549.74   29.50
  -2   3  -8  318.97   16.80
   2  -3   8  296.87   16.70
   2  -3   8  307.37   20.90
   2  -3   8  321.87   16.50
  -3   3  -8  279.27   16.80
  -3   3  -8  248.28   19.00
   3  -3   8  289.27   16.20
   3  -3   8  244.28   15.30
  -4   3  -8  536.95   28.20
   4  -3   8  543.05   27.00
   4  -3   8  514.25   25.70
  -5   3  -8   92.09   10.20
   5  -3   8  112.09    9.90
   5   2  -8   34.20    7.30
   5   2  -8   13.10    6.00
  -5  -2   8   27.60    5.30
   4   2  -8    7.80    4.30
   4   2  -8    2.10    4.50
   4   2  -8   10.20    5.90
  -4  -2   8   11.20    3.90
   3   2  -8  379.96   24.40
   3   2  -8  352.16   20.70
   3   2  -8  352.66   18.20
  -3  -2   8  332.97   26.00
  -3  -2   8  365.36   17.30
   2   2  -8  182.88    8.50
   2   2  -8  170.78   12.40
   2   2  -8  203.18   15.30
  -2  -2   8  174.98   13.20
  -2  -2   8  181.98    9.70
   1   2  -8 1107.99   44.40
   1   2  -8 1126.09   47.80
   1   2  -8 1184.38   50.49
   1   2  -8 1196.88   51.59
   0   2  -8 1031.20   46.40
   0   2  -8  971.70   44.00
   0   2  -8 1080.09   42.80
   0  -2   8  988.60   45.60
  -1   2  -8 1690.13   72.39
  -1   2  -8 1826.92   67.39
  -1   2  -8 1733.13   70.49
   1  -2   8 1719.33   66.69
  -2   2  -8 1769.02   76.79
  -2   2  -8 1960.60   78.39
  -2   2  -8 1913.41   74.19
   2  -2   8 1948.61   73.89
   2  -2   8 1877.71   72.99
   2  -2   8 1869.81   78.69
  -3   2  -8  150.98   11.40
  -3   2  -8  107.49   15.50
  -3   2  -8  149.29   12.90
   3  -2   8  144.69   10.40
   3  -2   8  131.39    9.90
   3  -2   8  125.29   13.30
  -4   2  -8   93.39   10.30
   4  -2   8   96.39    9.30
   4  -2   8  100.39    9.10
  -5   2  -8  132.09   13.10
   5  -2   8  135.19   11.10
   5   1  -8   15.10    5.00
  -5  -1   8   30.60    5.70
   4   1  -8   67.79    7.40
   4   1  -8   67.59   10.20
   4   1  -8   74.99    5.60
  -4  -1   8   66.99   16.90
  -4  -1   8   73.69    7.80
   3   1  -8 2075.99   74.49
   3   1  -8 1940.51   78.79
   3   1  -8 2019.10   83.59
  -3  -1   8 1796.32   86.09
  -3  -1   8 1931.01   74.99
   2   1  -8 1235.68   46.00
   2   1  -8 1229.78   52.59
   2   1  -8 1192.68   51.79
   2   1  -8 1146.09   49.10
  -2  -1   8 1087.59   45.70
   1   1  -8  219.98   10.90
   1   1  -8  230.08   14.80
   1   1  -8  239.28   15.60
   1   1  -8  210.48   12.90
  -1  -1   8  215.68   10.80
  -1  -1   8  224.88   16.70
   0   1  -8  117.09    8.50
   0   1  -8  124.89    9.80
  -1   1  -8  879.21   38.10
  -1   1  -8  905.21   40.50
  -1   1  -8  893.91   36.50
   1  -1   8  908.91   35.90
   1  -1   8  857.11   39.60
  -2   1  -8 3926.41  147.59
  -2   1  -8 3966.00  150.28
   2  -1   8 3920.41  146.79
   2  -1   8 3928.81  145.99
   2  -1   8 3916.51  150.88
  -3   1  -8  237.08   20.60
  -3   1  -8  249.08   15.70
   3  -1   8  250.37   18.00
   3  -1   8  261.37   14.10
   3  -1   8  231.68   14.10
  -4   1  -8   59.09    9.40
   4  -1   8   59.79    6.90
   4  -1   8   59.89    7.80
  -5   1  -8  185.78   15.10
   5  -1   8  201.78   13.80
  -6   1  -8   35.70    6.90
   6  -1   8   37.00    5.60
   6  -1   8   24.50    4.80
   5   0  -8  107.29    7.50
   5   0  -8  120.19   10.60
  -5   0   8  150.58   10.80
   4   0  -8  335.27   20.40
   4   0  -8  303.07   16.00
   4   0  -8  316.17   26.80
  -4   0   8  303.67   29.70
  -4   0   8  311.77   17.10
   3   0  -8  175.58   10.50
   3   0  -8  177.28   12.90
   3   0  -8  165.88   14.80
  -3   0   8  170.98   10.60
   2   0  -8  240.38   12.10
   2   0  -8  226.78   15.90
   2   0  -8  230.68   13.80
  -2   0   8  224.88   11.70
   1   0  -8  469.05   22.10
   1   0  -8  476.95   24.20
   1   0  -8  503.25   25.20
   1   0  -8  480.35   20.90
  -1   0   8  501.75   27.00
  -1   0   8  463.45   20.40
   0   0  -8   33.30    4.90
   0   0  -8   35.10    6.30
   0   0  -8   27.00    4.20
   0   0   8   36.50    3.80
  -1   0  -8   86.99    8.20
  -1   0  -8   74.29    6.40
  -1   0  -8   67.59    6.30
   1   0   8   72.49    7.40
  -2   0  -8  103.89   10.00
  -2   0  -8  115.09    8.70
  -2   0  -8  107.79    7.50
  -2   0  -8  119.29   11.50
   2   0   8  105.89    7.70
   2   0   8  112.39    9.70
   2   0   8  118.49    8.20
  -3   0  -8  115.69    8.80
  -3   0  -8  114.79   14.10
  -3   0  -8  137.99   10.80
   3   0   8  113.29    8.80
   3   0   8  114.69    8.60
   3   0   8  116.39   11.20
  -4   0  -8  226.88   13.80
  -4   0  -8  232.28   16.70
   4   0   8  239.28   15.00
  -5   0  -8  249.08   17.90
   5   0   8  254.97   16.00
  -6   0  -8  292.57   17.90
   6   0   8  293.67   16.20
   6   0   8  294.57   16.10
   5  -1  -8   74.49    6.60
  -5   1   8   76.99    8.70
   4  -1  -8 1950.01   79.99
   4  -1  -8 1970.70   83.39
   4  -1  -8 2405.46   98.69
  -4   1   8 1956.80   87.69
  -4   1   8 2024.70   80.29
   3  -1  -8   22.40    4.40
   3  -1  -8   17.90    6.20
   3  -1  -8   20.70    5.20
  -3   1   8   22.30    8.50
  -3   1   8   19.80    4.40
   2  -1  -8 2304.87   88.09
   2  -1  -8 2186.78   92.39
   2  -1  -8 2356.46   91.69
   1  -1  -8 1382.06   54.89
   1  -1  -8 1375.96   62.49
   1  -1  -8 1451.35   57.59
   0  -1  -8 7111.59  278.57
   0  -1  -8 7607.94  272.57
  -1  -1  -8 1727.63   84.09
  -1  -1  -8 1930.41   73.59
  -1  -1  -8 2079.79   76.19
  -1  -1  -8 1871.71   74.49
  -1  -1  -8 2058.69   77.39
   1   1   8 1935.11   75.99
   1   1   8 1948.80   74.19
  -2  -1  -8 4506.85  170.68
  -2  -1  -8 4396.86  167.98
  -2  -1  -8 4879.31  176.68
   2   1   8 4589.04  168.28
   2   1   8 4622.14  171.28
   2   1   8 4423.96  169.28
  -3  -1  -8  833.72   38.20
  -3  -1  -8  855.71   35.30
   3   1   8  848.42   34.90
   3   1   8  839.42   36.50
  -4  -1  -8  631.14   39.00
  -4  -1  -8  506.75   39.00
   4   1   8  555.34   26.90
  -5  -1  -8  143.59   13.10
  -5  -1  -8  126.39   10.90
   5   1   8  143.79   11.20
   5   1   8  141.19   11.30
  -6  -1  -8   98.39    9.90
   6   1   8   93.59    8.70
   5  -2  -8  457.65   22.00
  -5   2   8  432.16   26.50
  -5   2   8  460.05   22.40
   4  -2  -8  165.18   20.40
   4  -2  -8  176.38   12.00
  -4   2   8  163.28   14.80
  -4   2   8  164.38   11.90
   3  -2  -8  756.72   34.10
   3  -2  -8  726.53   32.70
   3  -2  -8  744.13   38.30
  -3   2   8  734.23   35.70
  -3   2   8  721.53   31.70
   2  -2  -8 1015.40   43.90
   2  -2  -8 1116.59   48.40
   2  -2  -8 1070.09   44.30
   2  -2  -8 1114.79   51.69
  -2   2   8 1070.89   43.10
   1  -2  -8 2168.08   84.59
   1  -2  -8 2206.88   82.49
   1  -2  -8 2231.28   91.49
  -1   2   8 2066.69   80.89
  -1   2   8 2107.29   82.99
   0  -2  -8  271.37   14.10
   0  -2  -8  261.07   13.20
   0  -2  -8  292.77   14.50
   0   2   8  250.57   14.90
  -1  -2  -8 1474.95   53.09
  -1  -2  -8 1368.36   54.89
  -1  -2  -8 1276.27   64.59
   1   2   8 1355.36   54.89
   1   2   8 1404.46   54.29
  -2  -2  -8 1988.00   74.09
  -2  -2  -8 1915.51   76.39
  -2  -2  -8 1836.42   88.39
  -2  -2  -8 2143.49   83.59
   2   2   8 1869.01   73.99
   2   2   8 1879.91   74.99
  -3  -2  -8  482.55   31.60
  -3  -2  -8  452.95   21.30
  -3  -2  -8  469.45   24.20
   3   2   8  434.06   22.40
   3   2   8  439.76   21.60
   3   2   8  437.86   21.90
  -4  -2  -8  394.76   20.40
   4   2   8  405.76   21.10
  -5  -2  -8   41.20    9.20
  -5  -2  -8   39.60    6.70
   5   2   8   43.70    7.40
   5   2   8   40.40    6.80
  -6  -2  -8   91.89   10.90
  -6  -2  -8   64.39   10.20
   6   2   8  115.89    9.00
   6   2   8   97.19    8.80
   5  -3  -8   68.09    6.90
  -5   3   8   67.09   10.50
  -5   3   8   40.10    6.30
   4  -3  -8  761.02   42.40
   4  -3  -8  743.03   35.00
  -4   3   8  786.62   39.20
  -4   3   8  798.52   34.20
   3  -3  -8  583.44   32.50
   3  -3  -8  557.44   26.70
  -3   3   8  574.34   25.70
  -3   3   8  511.75   28.70
   2  -3  -8 2474.75  105.09
   2  -3  -8 2469.05   95.29
   2  -3  -8 2504.45   99.59
   2  -3  -8 2378.76   94.19
  -2   3   8 2484.15   93.59
  -2   3   8 2562.04   97.79
   1  -3  -8  596.84   25.80
   1  -3  -8  605.14   26.70
   1  -3  -8  597.44   28.30
   1  -3  -8  598.94   34.70
  -1   3   8  601.34   25.10
  -1   3   8  566.94   27.00
   0  -3  -8 1152.08   44.90
   0  -3  -8 1187.68   56.19
   0  -3  -8 1113.89   45.80
   0  -3  -8 1102.39   45.30
   0   3   8 1094.69   45.60
  -1  -3  -8 1597.44   64.09
  -1  -3  -8 1851.11   83.19
  -1  -3  -8 1606.74   62.39
   1   3   8 1574.44   63.19
   1   3   8 1525.15   62.39
  -2  -3  -8 7871.71  297.97
  -2  -3  -8 7353.06  311.57
  -2  -3  -8 8650.63  295.77
   2   3   8 8538.75  293.57
   2   3   8 7914.41  295.97
   2   3   8 8228.48  296.57
  -3  -3  -8  956.30   40.60
  -3  -3  -8  969.80   43.50
  -3  -3  -8 1041.60   53.69
   3   3   8  974.40   41.50
   3   3   8  949.80   41.40
  -4  -3  -8  171.18   14.40
  -4  -3  -8  209.48   23.90
  -4  -3  -8  180.68   12.80
   4   3   8  192.48   13.50
   4   3   8  199.48   13.00
  -5  -3  -8  219.88   16.70
   5   3   8  210.68   15.20
   5   3   8  158.68   14.20
   5  -4  -8   26.30    5.00
  -5   4   8   22.90    6.90
   4  -4  -8 1243.88   52.39
   4  -4  -8 1277.47   60.79
  -4   4   8 1227.58   56.19
  -4   4   8 1184.28   49.80
   3  -4  -8 1247.48   53.09
   3  -4  -8 1264.27   58.29
  -3   4   8 1317.67   49.99
  -3   4   8 1049.49   57.69
   2  -4  -8  592.24   37.30
   2  -4  -8  568.04   31.00
   2  -4  -8  577.44   27.10
  -2   4   8  560.74   28.70
   1  -4  -8  696.03   55.69
   1  -4  -8  753.92   33.50
   1  -4  -8  712.83   31.50
  -1   4   8  695.23   30.70
  -1   4   8  691.13   31.80
   0  -4  -8   72.09    6.50
   0  -4  -8   66.69   17.20
   0  -4  -8   57.69    6.00
   0  -4  -8   65.89    6.10
   0   4   8   67.99    7.70
   0   4   8   60.49    5.90
   0   4   8   54.59    6.30
  -1  -4  -8  526.45   25.00
  -1  -4  -8  527.15   35.20
   1   4   8  499.55   24.00
   1   4   8  580.94   25.90
  -2  -4  -8  581.84   28.00
  -2  -4  -8  539.35   38.80
  -2  -4  -8  580.84   25.90
   2   4   8  633.84   26.90
   2   4   8  581.64   27.70
  -3  -4  -8  677.93   32.40
  -3  -4  -8  662.43   41.80
  -3  -4  -8  664.83   29.60
   3   4   8  629.44   30.60
   3   4   8  666.43   30.00
  -4  -4  -8  269.37   15.90
  -4  -4  -8  259.47   27.30
  -4  -4  -8  240.08   17.30
   4   4   8  267.47   16.80
   4   4   8  268.37   15.60
  -5  -4  -8  261.07   15.70
   5   4   8  256.47   16.60
   5   4   8  262.07   14.40
   5  -5  -8  251.77   14.70
  -5   5   8  261.87   17.50
   4  -5  -8  862.61   47.00
   4  -5  -8  935.21   40.30
  -4   5   8  845.32   42.70
   3  -5  -8 1591.24   64.89
   3  -5  -8 1517.45   73.89
  -3   5   8 1586.84   67.69
   2  -5  -8  714.13   34.00
   2  -5  -8  747.73   47.30
   2  -5  -8  784.92   38.70
   2  -5  -8  762.12   33.70
  -2   5   8  751.72   36.10
   1  -5  -8  690.43   31.10
   1  -5  -8  678.73   33.50
   1  -5  -8  708.03   32.00
   1  -5  -8  748.53   44.70
  -1   5   8  705.63   32.20
   0  -5  -8  340.47   27.80
   0  -5  -8  353.76   18.60
   0  -5  -8  341.77   23.70
   0  -5  -8  346.47   17.60
   0   5   8  352.76   18.30
   0   5   8  347.97   18.20
  -1  -5  -8  283.77   25.80
  -1  -5  -8  253.47   15.40
  -1  -5  -8  261.07   14.30
   1   5   8  279.07   15.10
  -2  -5  -8  144.19   11.30
  -2  -5  -8  152.68   21.00
  -2  -5  -8  171.48   10.90
   2   5   8  163.88   11.80
   2   5   8  159.48   10.60
  -3  -5  -8  398.96   20.20
   3   5   8  379.06   19.70
  -4  -5  -8  756.12   34.00
   4   5   8  747.23   32.90
   4   5   8  741.83   35.90
  -5  -5  -8   47.00    6.90
   5   5   8   58.99    8.40
   4  -6  -8  262.07   16.20
  -4   6   8  248.98   18.00
   3  -6  -8  414.66   21.80
   3  -6  -8  423.76   22.90
   3  -6  -8  411.76   27.80
  -3   6   8  402.56   24.60
   2  -6  -8  705.83   32.70
   2  -6  -8  712.33   37.70
   2  -6  -8  684.93   34.00
  -2   6   8  711.83   35.00
   1  -6  -8 1754.52   68.39
   1  -6  -8 1666.73   73.99
   1  -6  -8 1714.83   86.89
   1  -6  -8 1679.93   69.09
  -1   6   8 1698.83   70.09
   0  -6  -8  423.36   22.20
   0  -6  -8  487.65   26.00
   0  -6  -8  431.76   21.90
   0  -6  -8  473.65   37.20
   0   6   8  459.85   23.40
   0   6   8  437.86   22.50
  -1  -6  -8 2426.76   90.59
  -1  -6  -8 2220.88   91.99
  -1  -6  -8 2462.95  112.49
   1   6   8 2214.88   91.89
   1   6   8 2398.56   90.99
   2   6   8   50.49    8.00
   2   6   8   52.89    5.90
  -3  -6  -8  734.43   32.60
  -3  -6  -8  733.13   48.40
   3   6   8  692.83   31.20
   3   6   8  700.63   34.50
  -4  -6  -8  262.77   14.80
   4   6   8  174.38   11.40
   4   6   8  226.48   18.30
  -5  -6  -8   17.70    4.50
   4  -7  -8  284.27   16.90
  -4   7   8  317.07   19.20
  -4   7   8  300.07   21.10
   3  -7  -8  129.79   12.00
   3  -7  -8  119.49   25.10
  -3   7   8  143.69   13.00
   2  -7  -8  536.05   26.60
   2  -7  -8  543.45   27.20
   2  -7  -8  458.45   32.60
  -2   7   8  543.85   28.40
   1  -7  -8  681.93   32.10
   1  -7  -8  663.23   31.20
   1  -7  -8  583.74   32.80
  -1   7   8  715.43   33.00
  -1   7   8  681.03   32.40
   0  -7  -8  225.48   14.40
   0   7   8  216.58   15.30
  -1  -7  -8  287.57   16.20
   1   7   8  257.67   14.90
   1   7   8  247.78   18.10
  -2  -7  -8   56.19    7.80
   2   7   8   59.19    9.20
   2   7   8   52.29    5.70
  -3  -7  -8  444.96   23.00
  -3  -7  -8  461.85   38.20
   3   7   8  445.66   25.20
  -4  -7  -8   49.80    7.10
   4   7   8   60.59    8.90
   3  -8  -8   50.79    7.90
  -3   8   8   48.60   11.10
  -3   8   8   43.70    7.60
   2  -8  -8  481.75   31.60
   2  -8  -8  448.56   24.00
  -2   8   8  466.55   25.30
   1  -8  -8  970.00   43.00
  -1   8   8  994.00   43.50
  -1   8   8  947.01   44.20
   0  -8  -8    3.60    3.70
   0   8   8   -2.50    2.80
   0   8   8   -0.40    3.40
  -1  -8  -8 1360.06   55.89
   1   8   8 1262.77   53.09
   1   8   8 1395.26   63.09
   1   8   8 1348.47   58.09
  -2  -8  -8   12.50    4.50
   2   8   8   14.20    5.70
  -3  -8  -8   22.30    5.50
   3   8   8   20.20    6.10
  -4  -8  -8  185.78   12.10
   3  -9  -8  211.38   13.40
  -3   9   8  182.98   12.60
  -3   9   8  244.48   25.90
   2  -9  -8  194.38   13.70
  -2   9   8  174.28   17.90
  -2   9   8  191.98   12.60
   1  -9  -8  267.67   16.90
  -1   9   8  260.57   17.50
  -1   9   8  240.28   14.50
  -1   9   8  274.97   22.40
   0  -9  -8   17.10    5.90
   0   9   8   24.50   10.60
   0   9   8   20.10    7.80
   0   9   8    5.20    3.70
   1   9   8  614.84   35.10
   1   9   8  628.94   37.70
  -2  -9  -8  155.38   11.80
   2   9   8  154.88   13.20
  -3  -9  -8   10.60    3.90
   3   9   8   19.40    5.60
   1 -10  -8  417.76   22.00
  -1  10   8  429.36   28.20
   0 -10  -8  320.87   18.30
   0  10   8  326.97   19.80
   0  10   8  364.46   24.70
  -1 -10  -8  227.48   14.30
   1  10   8  231.78   15.40
   1  10   8  200.28   20.80
  -2 -10  -8  375.16   19.40
   0   9  -9  158.68   13.40
   0   9  -9  208.18   20.20
  -1   9  -9   50.49   12.90
   1  -9   9   64.79    6.90
   2   8  -9   35.40    9.10
   2   8  -9   50.89   10.20
   1   8  -9    3.50    4.20
   1   8  -9   -2.20    6.10
   0   8  -9  212.48   20.10
   0   8  -9  220.68   15.50
   0  -8   9  208.68   12.30
  -1   8  -9   95.39   15.00
  -1   8  -9   99.19   10.70
   1  -8   9   75.79    8.00
  -2   8  -9  203.38   14.30
  -2   8  -9  160.08   17.00
   2  -8   9  188.18   12.50
   3   7  -9  311.87   18.70
   2   7  -9  190.58   17.80
   2   7  -9  212.48   15.60
   1   7  -9   87.69   14.40
   1   7  -9   98.39   10.70
   0   7  -9   22.70    6.50
   0   7  -9   11.90    6.80
   0  -7   9   22.50    4.80
  -1   7  -9   97.29   15.60
  -1   7  -9  148.59   13.70
   1  -7   9  132.79   10.20
  -2   7  -9   71.99   11.10
  -2   7  -9   77.49   19.10
   2  -7   9   56.59   11.50
  -3   7  -9   21.10    6.50
  -3   7  -9    5.30    7.00
   3  -7   9   13.10    4.70
   4   6  -9   31.30   12.10
  -4  -6   9   41.70    5.70
   3   6  -9  495.75   26.70
   2   6  -9  203.38   15.60
   2   6  -9  201.28   18.30
   2   6  -9  181.88   18.20
   1   6  -9  887.31   47.50
   1   6  -9  910.81   42.40
   0   6  -9  158.88   17.40
   0   6  -9  142.79   13.20
   0  -6   9  129.39    9.50
  -1   6  -9  980.90   51.69
  -1   6  -9 1001.00   46.10
   1  -6   9  965.40   41.40
  -2   6  -9  228.58   21.40
  -2   6  -9  242.78   17.50
   2  -6   9  223.78   14.70
  -3   6  -9  113.39    7.20
  -3   6  -9  179.18   18.50
  -4   6  -9   49.99    7.10
  -4   6  -9   64.19    9.40
   4  -6   9   70.19    8.00
   4   5  -9  124.49   11.70
  -4  -5   9  134.39    9.00
   3   5  -9  885.21   41.20
   3   5  -9  829.92   45.90
   3   5  -9  818.12   41.60
  -3  -5   9  901.61   35.40
   2   5  -9 1180.08   56.59
   2   5  -9 1160.98   73.69
   2   5  -9 1214.58   52.99
   1   5  -9  653.73   33.30
   1   5  -9  670.33   37.60
   1   5  -9  657.53   40.00
  -1  -5   9  696.73   31.40
   0   5  -9 3131.69  126.89
   0   5  -9 3108.69  120.19
   0  -5   9 2946.81  114.49
   1  -5   9 1171.98   47.90
  -2   5  -9  942.01   39.90
  -2   5  -9 1027.30   46.50
  -2   5  -9 1036.40   51.39
   2  -5   9 1014.00   43.00
  -3   5  -9 1102.19   46.80
  -3   5  -9 1176.58   54.99
   3  -5   9 1111.29   48.00
  -4   5  -9  649.83   30.00
   4  -5   9  652.33   30.20
   4   4  -9  111.49   11.70
  -4  -4   9  113.89    8.60
   3   4  -9 1394.06   63.59
   3   4  -9 1487.15   68.49
   3   4  -9 1459.55   62.79
  -3  -4   9 1478.95   56.89
   2   4  -9  769.52   40.60
   2   4  -9  759.92   39.50
   2   4  -9  749.92   36.00
  -2  -4   9  723.13   30.60
   1   4  -9  495.85   30.20
   1   4  -9  516.15   26.50
   1   4  -9  511.05   29.50
  -1  -4   9  478.05   32.50
   0   4  -9  772.22   35.60
   0   4  -9  797.82   40.40
   0   4  -9  728.83   38.10
   0  -4   9  775.12   39.90
   0  -4   9  695.23   32.70
  -1   4  -9  335.67   20.30
  -1   4  -9  370.36   17.50
  -1   4  -9  373.86   24.50
   1  -4   9  387.66   18.20
   1  -4   9  307.47   28.00
  -2   4  -9  192.58   11.80
  -2   4  -9  199.58   17.70
   2  -4   9  173.68   12.00
  -3   4  -9  150.48   11.60
  -3   4  -9  158.78   15.60
   3  -4   9  143.59   11.50
  -4   4  -9  986.00   43.60
   4  -4   9  955.90   44.80
   4  -4   9  976.40   42.10
  -5   4  -9  347.07   19.70
   5  -4   9  393.86   20.60
   5   3  -9   82.69    9.70
  -5  -3   9   70.49    7.20
   4   3  -9  493.15   38.80
   4   3  -9  566.34   29.80
  -4  -3   9  579.44   25.50
   3   3  -9  112.69   11.40
  -3  -3   9  108.99    8.00
   2   3  -9 1346.07   60.09
   2   3  -9 1274.37   58.79
   2   3  -9 1317.47   55.79
  -2  -3   9 1279.77   50.69
   1   3  -9 1509.15   63.09
   1   3  -9 1604.84   67.49
   1   3  -9 1557.94   67.49
  -1  -3   9 1475.55   58.39
  -1  -3   9 1502.55   68.09
   0   3  -9  344.07   15.40
   0   3  -9  363.56   19.90
   0   3  -9  383.06   24.00
   0   3  -9  394.76   22.90
   0  -3   9  371.86   23.30
   0  -3   9  372.56   17.10
  -1   3  -9 2069.29   90.69
  -1   3  -9 2195.78   86.69
  -1   3  -9 2227.08   83.19
   1  -3   9 2264.47   91.69
  -2   3  -9  614.44   32.90
  -2   3  -9  581.54   27.10
   2  -3   9  585.34   26.80
   2  -3   9  562.74   32.80
  -3   3  -9 1036.40   45.10
  -3   3  -9 1019.10   48.40
   3  -3   9 1040.30   43.90
   3  -3   9 1012.20   44.60
  -4   3  -9  644.84   32.00
   4  -3   9  619.04   30.80
   4  -3   9  642.64   29.80
  -5   3  -9  621.04   31.30
   5  -3   9  652.43   30.50
   5   2  -9  265.67   17.70
  -5  -2   9  256.77   14.60
   4   2  -9  424.06   29.40
   4   2  -9  447.46   25.40
  -4  -2   9  439.06   21.50
   3   2  -9  879.71   38.90
   3   2  -9  889.31   43.50
  -3  -2   9  680.83   35.00
   2   2  -9  139.89   10.90
   2   2  -9  151.78   13.50
   2   2  -9  152.08   13.60
  -2  -2   9  122.89    8.20
   1   2  -9  183.38    8.90
   1   2  -9  178.18   14.20
   1   2  -9  184.68   12.50
   1   2  -9  183.18   14.50
  -1  -2   9  180.38    9.80
   0   2  -9 1126.79   49.30
   0   2  -9 1084.89   47.30
   0   2  -9 1005.60   44.50
   0   2  -9 1051.09   41.60
   0  -2   9 1052.49   42.00
  -1   2  -9  171.58   12.90
  -1   2  -9  180.88   10.40
  -1   2  -9  166.08   14.40
   1  -2   9  176.88   10.60
   1  -2   9  176.78   14.10
  -2   2  -9  360.16   18.60
   2  -2   9  347.87   18.30
   2  -2   9  332.57   22.00
   2  -2   9  350.86   17.70
  -3   2  -9  320.77   18.40
  -3   2  -9  290.37   19.30
   3  -2   9  298.97   17.20
   3  -2   9  307.47   16.80
   3  -2   9  285.07   21.50
  -4   2  -9   58.99    9.20
   4  -2   9   77.59    8.40
   4  -2   9   75.19    8.60
  -5   2  -9  199.08   15.30
   5  -2   9  219.48   14.40
  -5  -1   9  363.96   18.90
   4   1  -9   63.29   11.70
   4   1  -9   63.59    5.00
   4   1  -9   86.59   10.60
   4   1  -9   75.09    9.20
  -4  -1   9   80.19    8.00
   3   1  -9    5.90    4.40
   3   1  -9   10.60    5.30
   3   1  -9    5.70    2.30
  -3  -1   9   10.50    3.50
   2   1  -9 2081.39   83.79
   2   1  -9 2186.98   80.29
   2   1  -9 2101.69   87.59
   1   1  -9  164.98   11.20
   1   1  -9  175.18    9.40
   1   1  -9  169.68   13.10
   1   1  -9  194.78   14.50
  -1  -1   9  166.58    9.40
   0   1  -9 2732.73  106.39
   0   1  -9 2836.82  104.49
   0   1  -9 2782.02  108.29
   0   1  -9 2795.72  110.49
   0  -1   9 2753.02  104.09
   0  -1   9 2870.91  111.19
  -1   1  -9  982.60   39.80
  -1   1  -9  967.80   44.10
  -1   1  -9  964.40   41.80
   1  -1   9 1023.20   47.70
   1  -1   9  984.00   39.10
   1  -1   9  874.61   39.50
  -2   1  -9  211.58   15.40
  -2   1  -9  252.87   16.10
   2  -1   9  226.08   16.20
   2  -1   9  228.58   13.20
  -3   1  -9 1745.73   84.89
  -3   1  -9 2016.30   78.99
   3  -1   9 2015.30   77.59
   3  -1   9 1977.00   83.19
   3  -1   9 2006.40   76.19
  -4   1  -9   14.20    5.30
   4  -1   9   19.70    4.90
   4  -1   9   23.20    5.30
  -5   1  -9  213.98   16.00
   5  -1   9  207.28   14.10
  -5   0   9  155.58   11.50
   4   0  -9  431.46   20.00
   4   0  -9  397.26   21.10
   4   0  -9  432.46   29.10
   4   0  -9  432.46   24.40
  -4   0   9  408.36   21.10
   3   0  -9  555.84   28.70
   3   0  -9  579.14   32.80
   3   0  -9  590.54   25.90
  -3   0   9  591.84   26.20
   2   0  -9  360.56   21.50
   2   0  -9  352.86   18.50
  -2   0   9  307.17   18.70
   1   0  -9  732.83   34.70
   1   0  -9  738.13   29.80
   1   0  -9  703.23   31.00
   1   0  -9  701.83   33.50
  -1   0   9  685.03   29.10
   0   0  -9  245.38   14.70
   0   0  -9  282.37   13.40
   0   0  -9  239.18   13.60
   0   0  -9  246.68   16.80
   0   0   9  245.98   12.50
  -1   0  -9  336.87   20.50
  -1   0  -9  347.67   16.90
  -1   0  -9  372.66   17.90
   1   0   9  363.16   17.00
   1   0   9  396.86   21.00
  -2   0  -9  155.68   12.20
  -2   0  -9  155.88   13.20
  -2   0  -9  132.89   10.60
  -2   0  -9  147.69   10.80
   2   0   9  180.48   12.90
   2   0   9  170.58   10.60
   2   0   9  142.29   12.00
  -3   0  -9  262.17   16.40
  -3   0  -9  252.07   22.00
   3   0   9  260.67   14.30
   3   0   9  246.28   17.70
   3   0   9  259.37   15.20
  -4   0  -9 1087.19   48.20
  -4   0  -9 1011.10   43.20
   4   0   9 1064.59   45.90
  -5   0  -9  125.99   21.30
   5   0   9  148.39   11.50
   5   0   9  151.38   12.20
   5  -1  -9   73.29    6.20
  -5   1   9   66.79    8.00
   4  -1  -9  158.18   16.60
   4  -1  -9  155.68   13.10
   4  -1  -9  146.89   10.40
  -4   1   9  142.99   14.10
  -4   1   9  155.38   11.60
   3  -1  -9  117.59    8.80
   3  -1  -9  120.59   10.70
   3  -1  -9  115.19   12.90
  -3   1   9  105.39    8.70
  -3   1   9  123.09   11.60
   2  -1  -9   77.59    6.70
   2  -1  -9   91.39   10.00
   2  -1  -9   83.79    7.90
  -2   1   9   84.29    6.60
   1  -1  -9 1584.14   72.09
   1  -1  -9 1632.64   65.79
   1  -1  -9 1656.83   62.69
   1  -1  -9 1573.14   62.79
  -1   1   9 1582.34   61.49
  -1   1   9 1609.34   63.79
   0  -1  -9 3044.60  126.79
   0  -1  -9 3139.09  116.69
   0  -1  -9 3243.18  119.59
   0  -1  -9 2865.11  114.49
   0   1   9 3041.30  115.39
  -1  -1  -9 1174.68   48.00
  -1  -1  -9 1205.28   47.10
  -1  -1  -9 1218.58   49.00
  -1  -1  -9 1230.68   50.79
  -1  -1  -9 1249.88   51.79
   1   1   9 1157.48   48.30
   1   1   9 1206.18   50.79
   1   1   9 1210.38   47.40
  -2  -1  -9  586.14   25.60
  -2  -1  -9  634.54   32.40
   2   1   9  596.04   25.80
   2   1   9  557.34   26.70
   2   1   9  610.14   28.90
  -3  -1  -9   23.30    5.90
  -3  -1  -9   26.10    8.70
  -3  -1  -9   23.10    4.60
   3   1   9   24.40    5.70
   3   1   9   29.00    5.20
  -4  -1  -9 1429.46   62.19
  -4  -1  -9 1470.95   57.99
   4   1   9 1536.25   60.29
   4   1   9 1339.27   59.29
  -5  -1  -9  155.68   12.60
   5   1   9  151.88   17.00
   5   1   9  165.98   12.10
   5  -2  -9  107.79    8.30
  -5   2   9  105.29    9.20
  -5   2   9  126.59   13.60
   4  -2  -9 1069.09   44.80
   4  -2  -9 1089.89   53.39
  -4   2   9 1050.99   44.30
  -4   2   9  975.40   48.50
   3  -2  -9 2039.30   80.89
   3  -2  -9 2074.69   79.89
   3  -2  -9 1924.91   85.79
  -3   2   9 2064.89   78.79
  -3   2   9 2041.00   83.49
   2  -2  -9 2373.56   92.39
   2  -2  -9 2181.88   96.09
   2  -2  -9 2248.97   87.19
   2  -2  -9 2277.57   87.49
  -2   2   9 2226.88   85.99
   1  -2  -9 2862.11  110.69
   1  -2  -9 2970.00  110.19
   1  -2  -9 2793.72  120.29
   1  -2  -9 2913.21  112.59
  -1   2   9 2959.40  108.69
  -1   2   9 2984.80  111.29
   0  -2  -9 3059.49  129.49
   0  -2  -9 3109.39  118.19
   0  -2  -9 3210.28  117.79
   0   2   9 3074.59  115.99
   0   2   9 3179.48  117.99
  -1  -2  -9 5562.54  198.78
  -1  -2  -9 5281.97  200.88
  -1  -2  -9 5357.06  215.88
  -1  -2  -9 5671.63  199.28
   1   2   9 5469.95  198.88
   1   2   9 5353.16  201.78
   1   2   9 5291.97  200.28
  -2  -2  -9 1344.17   60.19
  -2  -2  -9 1352.86   54.49
   2   2   9 1236.18   51.29
   2   2   9 1311.37   53.39
   2   2   9 1299.67   51.19
   2   2   9 1324.07   53.09
  -3  -2  -9  625.54   31.60
  -3  -2  -9  676.43   29.10
  -3  -2  -9  659.23   39.90
   3   2   9  660.13   30.20
  -4  -2  -9   80.69    8.60
  -4  -2  -9   71.79   15.90
  -4  -2  -9   83.59    9.80
   4   2   9   82.49    8.30
   4   2   9   79.69    8.20
  -5  -2  -9   54.59    9.10
  -5  -2  -9   48.80    7.40
   5   2   9   82.89   13.00
   5   2   9   58.59    8.00
   5  -3  -9   22.80    4.60
  -5   3   9   29.80    7.10
  -5   3   9   23.60    5.70
   4  -3  -9  279.57   22.50
   4  -3  -9  255.37   15.80
  -4   3   9  277.17   15.70
  -4   3   9  231.28   18.80
   3  -3  -9 1042.80   51.19
   3  -3  -9 1012.80   48.20
  -3   3   9 1082.59   43.90
  -3   3   9 1082.59   48.70
   2  -3  -9 1553.94   62.79
   2  -3  -9 1517.15   61.89
   2  -3  -9 1601.44   67.29
  -2   3   9 1587.94   61.19
   1  -3  -9 1639.64   63.29
   1  -3  -9 1650.73   76.29
   1  -3  -9 1686.93   66.69
  -1   3   9 1602.44   62.49
  -1   3   9 1542.95   64.79
   0  -3  -9 3517.35  139.89
   0  -3  -9 3206.78  125.09
   0  -3  -9 3362.86  125.69
   0  -3  -9 3281.77  124.19
   0   3   9 3368.46  125.69
   0   3   9 3256.07  123.29
  -1  -3  -9   41.20    6.00
  -1  -3  -9   27.60   10.50
  -1  -3  -9   51.29    5.40
   1   3   9   42.90    5.00
   1   3   9   28.20    5.70
  -2  -3  -9 1210.78   47.00
  -2  -3  -9 1056.09   61.79
   2   3   9 1218.08   48.20
   2   3   9 1161.08   47.10
  -3  -3  -9 1173.18   59.79
  -3  -3  -9 1120.39   46.30
  -3  -3  -9 1143.79   49.50
   3   3   9 1112.59   47.30
   3   3   9 1074.49   46.70
  -4  -3  -9  318.77   20.70
  -4  -3  -9  335.67   18.20
  -4  -3  -9  328.47   31.40
   4   3   9  317.67   18.70
   4   3   9  335.37   18.60
  -5  -3  -9   45.10    8.30
  -5  -3  -9   41.60    6.80
   5   3   9   29.90    5.90
   5   3   9   41.60    6.60
   5  -4  -9   72.29    7.20
  -5   4   9   87.39   10.10
   4  -4  -9   36.30    6.40
   4  -4  -9   19.80    7.60
  -4   4   9   36.70    6.80
  -4   4   9   49.30    9.10
   3  -4  -9 5269.97  201.68
   3  -4  -9 5297.57  208.88
  -3   4   9 5594.04  205.68
   2  -4  -9  747.83   33.60
   2  -4  -9  784.62   46.90
   2  -4  -9  786.52   35.00
   2  -4  -9  809.52   39.30
  -2   4   9  814.32   37.30
  -2   4   9  740.43   32.60
   1  -4  -9 1040.80   42.20
   1  -4  -9 1010.30   44.90
   1  -4  -9 1049.00   55.69
   1  -4  -9 1123.39   50.59
  -1   4   9  926.91   40.40
  -1   4   9 1012.50   43.80
   0  -4  -9 1169.08   60.69
   0  -4  -9 1180.68   47.70
   0  -4  -9 1167.58   46.50
   0  -4  -9 1177.68   47.40
   0   4   9 1039.50   47.60
   0   4   9 1142.99   47.50
  -1  -4  -9  877.31   41.60
  -1  -4  -9  868.81   39.00
  -1  -4  -9  937.71   53.29
   1   4   9  958.10   38.80
   1   4   9  894.01   37.90
  -2  -4  -9  658.23   28.60
  -2  -4  -9  665.83   30.90
  -2  -4  -9  561.74   41.70
   2   4   9  680.73   29.60
  -3  -4  -9  513.55   27.40
  -3  -4  -9  627.84   52.29
   3   4   9  501.75   25.60
   3   4   9  499.15   27.60
  -4  -4  -9 1044.10   43.90
  -4  -4  -9  955.90   59.89
  -4  -4  -9  982.50   46.60
   4   4   9 1059.59   44.20
   4   4   9 1057.29   45.30
  -5  -4  -9  427.26   21.20
   5   4   9  421.06   20.30
   5   4   9  386.16   21.70
   4  -5  -9 1069.19   55.49
   4  -5  -9 1171.28   48.80
  -4   5   9 1147.09   52.19
   3  -5  -9  747.33   34.20
   3  -5  -9  671.63   39.50
  -3   5   9  740.63   36.80
   2  -5  -9 2674.73  107.19
   2  -5  -9 2861.81  106.39
   2  -5  -9 2757.42  125.89
   2  -5  -9 2788.22  112.19
  -2   5   9 2726.43  109.59
   1  -5  -9 2625.64  119.69
   1  -5  -9 2714.23  101.89
   1  -5  -9 2668.63  102.99
   1  -5  -9 2553.94  104.49
  -1   5   9 2702.83  103.59
   0  -5  -9  537.65   25.50
   0  -5  -9  539.55   24.40
   0  -5  -9  508.15   37.00
   0   5   9  480.55   24.70
  -1  -5  -9 2368.36   88.19
  -1  -5  -9 2380.56  108.69
   1   5   9 2045.80   94.99
   1   5   9 2320.37   88.99
  -2  -5  -9 1359.66   53.99
  -2  -5  -9 1397.16   56.49
  -2  -5  -9 1186.78   72.09
   2   5   9 1304.17   54.89
   2   5   9 1379.66   54.69
  -3  -5  -9 2377.76   93.79
  -3  -5  -9 2499.75  112.39
  -3  -5  -9 2394.06   96.99
   3   5   9 2388.86   94.19
   3   5   9 2451.65   95.69
  -4  -5  -9  154.58   23.90
  -4  -5  -9  165.68   12.60
   4   5   9  179.08   13.40
   4   5   9  171.38   11.40
  -5  -5  -9   57.89    7.60
   5   5   9   65.49    7.80
   4  -6  -9   62.49    7.40
  -4   6   9   80.69   11.20
   3  -6  -9  371.26   21.00
   3  -6  -9  335.77   20.10
   3  -6  -9  374.36   25.80
  -3   6   9  368.36   23.00
   2  -6  -9  413.96   22.30
   2  -6  -9  405.76   21.80
   2  -6  -9  404.46   26.90
  -2   6   9  401.36   23.70
   1  -6  -9  637.84   30.10
   1  -6  -9  552.34   30.50
   1  -6  -9  637.04   29.20
  -1   6   9  645.04   29.70
   0  -6  -9  795.22   35.60
   0  -6  -9  772.22   51.29
   0  -6  -9  794.12   34.60
   0   6   9  730.63   34.80
   0   6   9  777.32   35.20
  -1  -6  -9  845.92   39.10
  -1  -6  -9  901.41   37.80
   1   6   9  833.72   37.80
   1   6   9  875.61   38.90
  -2  -6  -9  497.05   23.90
   2   6   9  460.55   23.40
  -3  -6  -9  304.07   17.80
  -3  -6  -9  322.87   30.10
   3   6   9  323.07   17.20
   3   6   9  306.27   18.80
  -4  -6  -9   23.80    5.40
   4   6   9   22.90    4.30
   4   6   9   11.00    5.00
  -5  -6  -9  179.18   13.80
   5   6   9  188.68   12.90
   4  -7  -9   34.40    5.60
  -4   7   9   45.60    8.40
  -4   7   9   22.00    5.90
   3  -7  -9  457.65   23.90
   3  -7  -9  426.86   40.80
   3  -7  -9  496.35   25.30
  -3   7   9  524.85   27.60
   2  -7  -9  636.14   30.40
   2  -7  -9  603.04   34.40
   2  -7  -9  620.04   30.80
  -2   7   9  633.64   32.50
   1  -7  -9  546.05   31.20
   1  -7  -9  624.54   30.50
   1  -7  -9  637.54   30.10
  -1   7   9  664.83   31.00
  -1   7   9  642.44   31.60
   0  -7  -9   10.10    4.60
   0  -7  -9    1.10    3.80
   0   7   9   12.30    5.10
  -1  -7  -9  522.95   25.60
   1   7   9  520.25   26.70
   1   7   9  493.45   24.90
  -2  -7  -9  691.63   31.70
   2   7   9  662.93   30.40
   2   7   9  696.63   33.50
  -3  -7  -9  332.17   18.40
   3   7   9  303.17   19.30
  -4  -7  -9  715.53   32.00
   4   7   9  696.23   33.30
   3  -8  -9   61.59    7.60
   3  -8  -9   70.59   10.40
  -3   8   9   64.59    9.50
  -3   8   9   53.59   11.20
   2  -8  -9  355.86   21.80
   2  -8  -9  462.45   30.30
   1  -8  -9  696.23   33.70
   1  -8  -9  688.63   34.50
  -1   8   9  727.03   34.50
  -1   8   9  755.92   35.00
   0  -8  -9   47.70    7.70
   0   8   9   55.69    8.20
   0   8   9   54.59    9.10
  -1  -8  -9  272.87   16.60
   1   8   9  252.47   14.90
   1   8   9  272.17   17.90
  -2  -8  -9  582.24   27.80
   2   8   9  547.85   29.10
  -3  -8  -9  118.59   10.30
   3   8   9  126.29   11.60
  -4  -8  -9    9.70    5.90
   4   8   9   11.40    4.80
   2  -9  -9    4.70    4.60
  -2   9   9   14.00    7.20
  -2   9   9    3.50    3.70
   1  -9  -9   79.09    9.20
  -1   9   9   73.09    7.50
  -1   9   9   82.49   14.60
   0  -9  -9  432.46   23.00
   0   9   9  304.37   17.10
   0   9   9  375.76   26.80
   0   9   9  426.46   22.50
  -1  -9  -9   28.20    5.70
   1   9   9   13.40    8.00
   1   9   9   29.40    6.60
  -2  -9  -9   68.19    8.30
   2   9   9   73.89    9.90
  -3  -9  -9  204.78   13.10
   3   9   9  215.58   14.70
   1 -10  -9   46.70    7.30
  -1  10   9   50.69   10.10
   0 -10  -9  178.08   12.60
   0  10   9  181.18   16.60
   0  10   9  174.98   13.40
  -1 -10  -9  102.39    9.40
   1  10   9   86.59   14.70
   1   8 -10  104.29   10.60
   1   8 -10   70.49   12.10
   0   8 -10    8.90    6.80
   0   8 -10    6.80    4.70
  -1   8 -10   48.50    8.40
  -1   8 -10   29.10    8.40
   1  -8  10   34.50    5.30
  -2   8 -10  138.79   15.00
   2  -8  10  136.29   10.00
   3   7 -10  331.97   19.00
   2   7 -10  353.56   23.80
   2   7 -10  345.77   20.90
   1   7 -10  181.38   18.30
   1   7 -10  200.08   15.20
   0   7 -10  415.56   25.50
   0   7 -10  504.65   32.10
   0  -7  10  451.05   23.40
  -1   7 -10  270.27   26.80
   1  -7  10  283.27   17.90
  -2   7 -10   98.49   10.70
  -2   7 -10   88.69   14.20
   2  -7  10   82.99    8.60
  -3   7 -10  429.36   29.50
  -3   7 -10  400.56   22.50
   3  -7  10  398.96   20.60
   3   6 -10  165.18   13.80
   2   6 -10  126.59   22.00
   2   6 -10  146.39   13.50
   1   6 -10  162.98   14.10
   1   6 -10  157.38   17.20
  -1  -6  10  155.38   10.10
   0   6 -10  115.09   12.00
   0   6 -10   97.49   15.70
   0  -6  10   99.39    8.10
  -1   6 -10  159.48   14.20
  -1   6 -10  139.99   17.50
   1  -6  10  140.39   10.90
  -2   6 -10  161.48   17.80
  -2   6 -10  158.48   14.10
   2  -6  10  158.58   12.10
  -3   6 -10  477.95   26.30
  -3   6 -10  445.86   28.20
   3  -6  10  461.05   23.50
  -4   6 -10   55.39    8.60
   4  -6  10   62.39    7.10
   4   5 -10  334.57   20.60
  -4  -5  10  393.26   18.90
   3   5 -10  421.96   29.70
  -3  -5  10  402.56   19.10
   2   5 -10  427.46   28.00
   2   5 -10  432.56   25.20
   2   5 -10  429.16   29.10
  -2  -5  10  414.96   19.10
   1   5 -10 1391.56   61.09
   1   5 -10 1442.26   66.39
   1   5 -10 1392.06   65.99
   0   5 -10  539.45   28.40
   0   5 -10  513.35   33.00
   0  -5  10  494.65   23.20
  -1   5 -10 1277.67   55.99
  -1   5 -10 1211.58   60.59
   1  -5  10 1272.07   51.49
  -2   5 -10  461.85   31.00
  -2   5 -10  508.95   28.00
   2  -5  10  511.05   24.90
  -3   5 -10 1097.89   49.70
  -3   5 -10 1126.29   52.69
  -3   5 -10 1018.70   44.00
   3  -5  10 1084.19   46.30
  -4   5 -10  355.36   18.30
  -4   5 -10  371.66   21.70
   4  -5  10  362.36   19.20
   4   4 -10  274.87   18.70
  -4  -4  10  296.97   15.20
   3   4 -10 1777.82   74.39
   3   4 -10 1786.02   80.79
  -3  -4  10 1754.62   68.39
   2   4 -10  247.18   17.40
   2   4 -10  259.87   27.60
   2   4 -10  229.38   19.50
   1   4 -10  148.39   15.20
   1   4 -10  122.19   11.40
   1   4 -10  114.89   13.20
  -1  -4  10  112.79    7.90
   0   4 -10   84.89    9.60
   0   4 -10   77.09   12.80
   0   4 -10   78.99   11.10
   0  -4  10   78.79   11.60
   0  -4  10   79.19    6.80
  -1   4 -10   58.89    4.90
  -1   4 -10   64.59   11.70
  -1   4 -10   71.59   10.20
  -2   4 -10 1342.67   63.59
  -2   4 -10 1382.86   59.49
   2  -4  10 1381.66   56.09
  -3   4 -10 1138.29   47.80
  -3   4 -10 1145.89   53.29
   3  -4  10 1087.69   47.60
  -4   4 -10   54.29    7.70
   4  -4  10   40.50    7.00
   4  -4  10   51.19    8.20
  -5   4 -10  104.99    8.50
   5  -4  10   97.49    9.20
   4   3 -10  213.48   16.30
  -4  -3  10  227.78   13.30
   3   3 -10  728.73   40.30
   3   3 -10  693.13   35.10
  -3  -3  10  704.63   30.40
   2   3 -10  147.69   14.80
   2   3 -10  121.99   14.00
  -2  -3  10  139.59    8.80
   1   3 -10  676.43   35.60
   1   3 -10  671.63   36.10
   1   3 -10  641.34   31.80
  -1  -3  10  641.64   37.00
  -1  -3  10  652.73   27.70
   0   3 -10  318.27   21.40
   0   3 -10  332.37   22.50
   0   3 -10  298.77   18.40
   0   3 -10  314.17   13.70
   0  -3  10  314.47   22.30
  -1   3 -10  249.08   12.90
  -1   3 -10  258.47   19.60
  -1   3 -10  230.78   15.60
   1  -3  10  218.98   18.30
   1  -3  10  251.87   13.70
  -2   3 -10 1204.38   49.20
  -2   3 -10 1190.38   55.59
   2  -3  10 1141.89   56.89
   2  -3  10 1201.48   49.00
  -3   3 -10   38.30    7.00
   3  -3  10   42.50    6.50
   3  -3  10   43.00    8.10
  -4   3 -10  394.46   22.20
   4  -3  10  378.16   20.40
   4  -3  10  386.46   21.90
  -5   3 -10   28.60    6.10
   5  -3  10   33.70    5.80
   5   2 -10   94.99   10.30
  -5  -2  10   83.09    7.80
   4   2 -10   51.19   14.90
   4   2 -10   53.39    9.30
  -4  -2  10   55.29    7.00
   3   2 -10   17.60    7.80
   3   2 -10   40.30    7.90
  -3  -2  10   41.20    5.50
   2   2 -10  552.54   31.30
   2   2 -10  558.34   30.90
   2   2 -10  532.75   27.70
  -2  -2  10  541.45   23.90
   1   2 -10 1461.75   65.09
   1   2 -10 1401.96   65.59
   1   2 -10 1569.94   57.09
   1   2 -10 1491.95   61.99
  -1  -2  10 1582.54   59.79
   0   2 -10   53.19    4.80
   0   2 -10   59.19   10.10
   0   2 -10   66.89    8.50
   0   2 -10   45.80    8.00
   0  -2  10   53.49    9.50
  -1   2 -10  460.95   21.70
  -1   2 -10  493.45   27.50
  -1   2 -10  461.45   25.20
  -1   2 -10  452.65   23.30
   1  -2  10  452.45   26.90
   1  -2  10  446.46   21.30
  -2   2 -10  189.78   15.80
  -2   2 -10  186.58   12.30
   2  -2  10  177.58   12.00
   2  -2  10  180.68   11.70
   2  -2  10  186.28   16.30
  -3   2 -10  935.31   45.00
  -3   2 -10 1022.10   43.80
   3  -2  10  969.60   47.10
   3  -2  10  954.50   42.60
  -4   2 -10  115.79   11.30
   4  -2  10  122.99   10.70
   4  -2  10  118.99   10.40
  -5   2 -10   89.79    9.80
   5  -2  10   91.59    8.70
  -5  -1  10  244.18   14.40
   4   1 -10   64.29   13.00
   4   1 -10   61.69   10.10
  -4  -1  10   61.09    7.40
   3   1 -10  189.48   14.10
   3   1 -10  180.68    9.80
   3   1 -10  169.68   16.60
  -3  -1  10  177.38   11.40
   2   1 -10  177.08   15.30
   2   1 -10  172.08   12.70
   2   1 -10  181.58    9.90
   2   1 -10  163.38   14.70
  -2  -1  10  163.98   10.20
   1   1 -10  824.72   41.90
   1   1 -10  751.22   36.90
   1   1 -10  756.32   34.30
   1   1 -10  740.03   33.90
   0   1 -10  191.88   12.20
   0   1 -10  183.18   13.40
   0  -1  10  170.98   10.20
   0  -1  10  174.58   14.60
  -1   1 -10  299.87   17.20
  -1   1 -10  268.77   14.50
   1  -1  10  269.67   15.10
   1  -1  10  240.58   17.80
   1  -1  10  265.87   14.10
  -2   1 -10 1503.95   60.09
   2  -1  10 1431.46   58.29
   2  -1  10 1474.05   64.59
   2  -1  10 1482.05   59.69
  -3   1 -10   34.50    6.70
   3  -1  10   32.40    5.90
   3  -1  10   27.70    5.70
   3  -1  10   31.70    8.10
  -4   1 -10    8.00    3.90
   4  -1  10    2.70    4.70
   4  -1  10    3.10    3.50
  -5   1 -10   32.20    6.70
   5  -1  10   40.70    6.90
  -5   0  10  210.58   13.30
   4   0 -10  185.08   18.60
   4   0 -10  179.98   10.70
   4   0 -10  174.08   14.80
  -4   0  10  192.18   12.50
   3   0 -10  161.58   10.00
   3   0 -10  147.49   15.40
   3   0 -10  155.58   14.40
  -3   0  10  137.29   10.90
   2   0 -10  864.41   41.90
   2   0 -10  875.01   35.70
   2   0 -10  820.32   37.80
  -2   0  10  861.41   35.40
   1   0 -10  433.16   21.40
   1   0 -10  444.66   25.00
   1   0 -10  455.65   24.40
  -1   0  10  414.36   21.60
   0   0 -10 2926.91  111.99
   0   0 -10 3022.00  116.69
   0   0 -10 2933.81  113.99
   0   0 -10 2952.50  110.99
   0   0  10 2977.60  110.29
   0   0  10 2886.31  111.89
  -1   0 -10  866.61   39.70
  -1   0 -10  857.31   38.40
  -1   0 -10  785.52   35.60
  -1   0 -10  825.12   36.80
   1   0  10  818.22   35.70
   1   0  10  887.91   39.90
  -2   0 -10  847.82   39.90
  -2   0 -10  843.32   40.50
  -2   0 -10  898.01   38.20
   2   0  10  881.51   41.10
   2   0  10  854.41   36.10
  -3   0 -10  482.05   32.40
  -3   0 -10  515.15   26.00
   3   0  10  431.26   27.40
   3   0  10  473.75   24.20
   3   0  10  523.25   23.30
  -4   0 -10  175.28   25.40
  -4   0 -10  207.58   15.50
   4   0  10  212.68   14.20
   4   0  10  190.48   12.70
  -5   0 -10  126.29   11.90
   5   0  10  112.19   10.20
   5   0  10  109.79    9.90
   5  -1 -10  206.68   11.20
  -5   1  10  239.98   13.80
   4  -1 -10  472.05   25.70
   4  -1 -10  426.36   29.90
   4  -1 -10  462.95   22.00
  -4   1  10  444.66   22.60
   3  -1 -10  726.13   34.90
   3  -1 -10  744.93   39.60
   3  -1 -10  783.32   35.00
  -3   1  10  723.93   36.30
  -3   1  10  683.03   32.80
   2  -1 -10   80.59    6.90
  -2   1  10   80.59    6.70
   1  -1 -10 1404.36   60.89
   1  -1 -10 1457.95   57.99
   1  -1 -10 1512.45   57.79
  -1   1  10 1485.85   56.69
  -1   1  10 1415.66   58.89
   0  -1 -10 4081.59  148.79
   0  -1 -10 4222.58  153.88
   0  -1 -10 4045.40  150.48
   0  -1 -10 3912.51  148.39
   0  -1 -10 3790.82  167.08
   0   1  10 4103.69  147.49
   0   1  10 3732.73  148.89
  -1  -1 -10 1449.26   56.09
  -1  -1 -10 1320.77   54.39
  -1  -1 -10 1264.07   53.29
  -1  -1 -10 1385.26   57.69
  -1  -1 -10 1351.46   53.89
   1   1  10 1378.36   52.89
   1   1  10 1284.07   53.89
   1   1  10 1307.07   56.79
  -2  -1 -10   58.69    6.90
  -2  -1 -10   65.19    9.60
  -2  -1 -10   67.69    6.50
   2   1  10   61.79    6.30
   2   1  10   69.59    8.30
   2   1  10   67.69    8.10
  -3  -1 -10  102.69    9.90
  -3  -1 -10   99.19    8.70
  -3  -1 -10   99.79   14.50
   3   1  10  106.69    8.90
   3   1  10   88.79    7.90
   3   1  10  100.89   11.60
  -4  -1 -10 1011.30   42.60
  -4  -1 -10 1058.59   47.40
  -4  -1 -10  996.20   59.69
   4   1  10 1023.60   43.40
   4   1  10 1037.00   45.20
  -5  -1 -10  199.28   15.20
   5   1  10  191.98   13.20
   5   1  10  196.08   13.40
   5  -2 -10  199.78   11.20
  -5   2  10  192.68   12.30
  -5   2  10  164.48   15.60
   4  -2 -10   33.80    6.00
   4  -2 -10   34.80    9.80
  -4   2  10   31.30    5.60
  -4   2  10   28.10    8.60
   3  -2 -10  140.39   11.40
   3  -2 -10  139.69   14.50
   3  -2 -10  131.19   10.20
  -3   2  10  149.19   13.00
  -3   2  10  152.18   10.60
   2  -2 -10 1084.89   44.70
   2  -2 -10 1063.79   49.20
  -2   2  10 1057.59   43.40
   1  -2 -10 1740.13   66.79
   1  -2 -10 1636.24   65.79
   1  -2 -10 1680.83   69.39
  -1   2  10 1747.33   67.89
  -1   2  10 1641.94   64.89
   0  -2 -10 1911.71   72.19
   0  -2 -10 1821.82   71.09
   0  -2 -10 1694.43   83.69
   0   2  10 1810.72   69.39
   0   2  10 1822.12   71.39
  -1  -2 -10 2134.89   84.39
  -1  -2 -10 1877.31   78.49
  -1  -2 -10 2173.38   78.89
  -1  -2 -10 2034.90   95.69
  -1  -2 -10 2099.69   78.69
   1   2  10 2068.79   80.29
   1   2  10 2012.90   81.89
   1   2  10 2105.79   78.49
  -2  -2 -10 1631.74   64.79
  -2  -2 -10 1622.04   70.79
  -2  -2 -10 1571.34   61.79
   2   2  10 1549.94   61.29
   2   2  10 1531.05   64.19
   2   2  10 1594.74   63.59
  -3  -2 -10 1304.47   52.89
  -3  -2 -10 1350.36   56.49
  -3  -2 -10 1290.67   65.29
   3   2  10 1297.77   54.59
   3   2  10 1319.07   54.39
  -4  -2 -10  933.91   43.00
  -4  -2 -10  875.61   38.60
  -4  -2 -10  858.31   54.79
   4   2  10  914.41   39.30
   4   2  10  926.01   40.60
  -5  -2 -10  518.15   25.20
  -5  -2 -10  542.95   28.90
   5   2  10  534.55   26.60
   5   2  10  572.54   26.60
   5  -3 -10  142.59    9.50
  -5   3  10  122.39   10.50
   4  -3 -10  974.00   41.70
   4  -3 -10  923.41   49.30
  -4   3  10  968.50   40.50
  -4   3  10  931.91   45.50
   3  -3 -10 1065.79   57.39
   3  -3 -10 1146.09   48.10
  -3   3  10 1145.49   51.59
  -3   3  10 1134.99   46.50
   2  -3 -10  845.92   38.00
   2  -3 -10  928.51   42.90
   2  -3 -10  841.82   49.70
  -2   3  10  877.91   36.70
   1  -3 -10  264.07   16.90
   1  -3 -10  268.47   15.40
   1  -3 -10  297.87   15.20
   1  -3 -10  276.77   24.50
  -1   3  10  263.97   14.00
  -1   3  10  283.37   17.50
   0  -3 -10  138.09   17.40
   0  -3 -10  153.08   10.50
   0  -3 -10  153.38    9.90
   0   3  10  134.39    8.90
  -1  -3 -10 2708.13  125.19
   1   3  10 2878.41  106.19
   1   3  10 2930.81  109.09
  -2  -3 -10 2268.87   87.89
  -2  -3 -10 1920.71  102.99
  -2  -3 -10 2421.66   97.59
  -2  -3 -10 2205.18   84.99
   2   3  10 2234.28   86.49
  -3  -3 -10 1068.49   44.30
  -3  -3 -10 1119.39   58.19
  -3  -3 -10 1051.79   47.30
   3   3  10 1018.00   44.30
   3   3  10 1038.60   45.60
  -4  -3 -10 1099.29   48.30
  -4  -3 -10 1070.79   61.99
  -4  -3 -10 1076.49   44.70
   4   3  10 1062.59   45.80
   4   3  10  943.71   44.40
  -5  -3 -10   98.09   10.10
  -5  -3 -10   76.59    8.30
   5   3  10   83.19    8.00
   5   3  10   67.09    8.50
   5  -4 -10   42.50    5.00
  -5   4  10   33.00    7.60
   4  -4 -10   78.19   14.40
   4  -4 -10   74.19    7.80
  -4   4  10   71.69   15.60
  -4   4  10   45.30    7.20
   3  -4 -10    1.70    3.10
  -3   4  10    3.20    3.80
  -3   4  10    6.60    4.30
   2  -4 -10  339.07   19.60
   2  -4 -10  321.57   21.60
   2  -4 -10  282.77   29.20
   2  -4 -10  318.97   18.20
  -2   4  10  337.07   16.70
  -2   4  10  330.47   20.30
   1  -4 -10  388.06   19.90
   1  -4 -10  363.16   21.00
   1  -4 -10  355.06   29.50
   1  -4 -10  376.46   18.90
  -1   4  10  369.56   20.40
   0  -4 -10   23.20    9.50
   0  -4 -10   17.00    4.20
   0  -4 -10   30.10    4.90
   0   4  10   22.40    4.40
   0   4  10   26.40    5.20
  -1  -4 -10  685.03   33.40
  -1  -4 -10  630.74   28.00
  -1  -4 -10  613.04   42.80
   1   4  10  658.33   29.20
   1   4  10  548.65   32.40
  -2  -4 -10  381.66   35.10
  -2  -4 -10  425.56   20.90
  -2  -4 -10  407.26   22.30
   2   4  10  454.85   22.50
   2   4  10  423.56   21.60
  -3  -4 -10 4608.84  165.58
  -3  -4 -10 4383.56  168.58
   3   4  10 4418.86  166.38
   3   4  10 4232.48  165.78
  -4  -4 -10   54.99   20.10
  -4  -4 -10   93.29    9.00
  -4  -4 -10   96.19   12.60
   4   4  10   94.79    8.80
   4   4  10   83.49    9.50
  -5  -4 -10   97.89    9.20
  -5  -4 -10   89.09   11.10
   5   4  10   96.19    7.80
   4  -5 -10  208.18   14.00
  -4   5  10  234.28   17.30
   3  -5 -10 1026.70   51.49
   3  -5 -10  995.30   45.10
  -3   5  10 1050.19   48.40
   2  -5 -10 1843.22   78.79
   2  -5 -10 1821.52   74.19
  -2   5  10 1828.92   76.59
   1  -5 -10 1363.66   55.39
   1  -5 -10 1304.37   53.89
   1  -5 -10 1307.77   72.09
   1  -5 -10 1324.17   59.89
  -1   5  10 1282.77   55.59
   0  -5 -10  238.48   14.30
   0  -5 -10  255.07   15.20
   0   5  10  242.68   15.40
   0   5  10  228.48   14.80
  -1  -5 -10 2717.53  100.09
  -1  -5 -10 2635.34  101.79
  -1  -5 -10 2426.36  120.29
   1   5  10 2568.64  100.89
   1   5  10 2636.44  100.29
  -2  -5 -10 1363.56   58.59
   2   5  10 1375.76   57.09
   2   5  10 1424.56   59.19
  -3  -5 -10 1199.98   49.00
  -3  -5 -10 1125.29   51.19
  -3  -5 -10 1195.98   65.39
   3   5  10 1160.98   49.30
   3   5  10 1121.49   49.60
  -4  -5 -10 1959.90   75.99
   4   5  10 1854.41   75.39
   5   5  10  134.59    8.30
   4  -6 -10  183.48   12.40
  -4   6  10  163.88   14.10
   3  -6 -10 1072.09   47.10
   3  -6 -10 1051.89   54.29
  -3   6  10 1088.09   49.90
   2  -6 -10  197.78   14.10
   2  -6 -10  193.48   13.70
  -2   6  10  203.08   15.70
   1  -6 -10    6.90    4.40
   1  -6 -10    0.30    4.40
   1  -6 -10    6.00    4.40
   0  -6 -10  417.96   24.80
   0  -6 -10  419.16   22.60
   0   6  10  424.36   22.00
  -1  -6 -10  218.58   14.40
  -1  -6 -10  208.48   13.50
   1   6  10  179.88   13.40
   1   6  10  196.68   14.00
  -2  -6 -10 1063.59   48.70
  -2  -6 -10 1130.99   47.20
   2   6  10 1107.09   48.10
   2   6  10 1141.69   47.60
  -3  -6 -10  412.66   21.90
  -3  -6 -10  535.25   50.49
   3   6  10  389.16   22.60
   3   6  10  392.56   21.20
  -4  -6 -10  373.36   19.40
   4   6  10  354.06   19.90
   4   6  10  311.27   16.60
   3  -7 -10  339.57   19.60
  -3   7  10  349.96   21.70
   2  -7 -10  223.58   14.90
   2  -7 -10  197.88   14.30
   2  -7 -10  172.78   17.60
  -2   7  10  226.78   16.30
   1  -7 -10  987.00   43.30
   1  -7 -10  985.20   44.20
  -1   7  10  989.00   45.30
   0  -7 -10   28.40    6.20
   0  -7 -10   23.50    6.20
   0   7  10   29.40    6.40
  -1  -7 -10  980.90   53.39
  -1  -7 -10  946.61   42.00
   1   7  10  965.10   43.10
   1   7  10  947.11   41.80
  -2  -7 -10  565.04   27.40
   2   7  10  540.05   26.30
   2   7  10  549.74   28.30
  -3  -7 -10  244.78   17.60
   3   7  10  211.08   12.30
   3   7  10  226.88   15.30
  -4  -7 -10   14.20    4.50
   4   7  10   14.30    5.30
   3  -8 -10   53.99   10.00
  -3   8  10   93.79    9.40
   2  -8 -10   16.20    5.40
   2  -8 -10   17.40    5.90
  -2   8  10   20.10    5.80
   1  -8 -10    8.10    8.00
   1  -8 -10   17.50    5.40
  -1   8  10   12.30    5.00
   0  -8 -10   57.99    8.60
   0   8  10   43.00    7.40
   0   8  10   51.89    7.60
  -1  -8 -10  478.05   24.60
   1   8  10  463.95   23.30
   2   8  10  163.18   12.80
   2   8  10  120.09    8.60
  -3  -8 -10  201.58   13.10
   3   8  10  164.68   13.00
   2  -9 -10  161.78   13.10
  -2   9  10  182.48   17.10
   1  -9 -10   43.20    7.30
  -1   9  10   41.00    5.90
   0  -9 -10    8.50    4.10
   0   9  10    5.80    3.30
   0   9  10    1.30    6.00
   0   9  10   10.50    5.00
  -1  -9 -10  164.08   12.40
   1   9  10  135.49   12.00
   1   9  10  156.98   16.30
  -2  -9 -10   95.59    9.40
   2   9  10  109.99   10.30
   0 -10 -10 1042.60   44.20
   0  10  10 1043.80   50.59
  -1 -10 -10   76.09    8.60
   1  10  10   46.60    7.30
   1   8 -11  228.28   15.30
   1   8 -11  200.88   17.10
   0   8 -11   72.39   12.40
   0   8 -11  101.99   10.10
   0  -8  11   85.99    7.30
  -1   8 -11  182.98   17.20
   1  -8  11  192.88   12.30
   2   7 -11  189.78   18.50
   2   7 -11  241.68   15.80
   1   7 -11   91.69   13.80
   1   7 -11   90.09   10.70
   0   7 -11  316.77   25.40
   0   7 -11  391.46   22.50
   0  -7  11  326.47   17.10
  -1   7 -11  104.49   11.30
  -1   7 -11  112.29   15.00
   1  -7  11   97.19    8.90
  -2   7 -11  555.24   29.20
  -2   7 -11  539.65   32.60
   2  -7  11  572.04   26.40
  -3   7 -11   85.69   10.50
  -3   7 -11  117.99   12.70
   3  -7  11   85.19    9.20
   3   6 -11   14.90    5.20
   2   6 -11   69.59   10.40
   2   6 -11   56.29   11.10
  -2  -6  11   44.70    5.30
   1   6 -11  391.96   23.90
   1   6 -11  424.76   28.20
   0   6 -11   51.69    9.60
   0   6 -11   61.39   12.60
   0  -6  11   53.39    6.70
  -1   6 -11   46.40    8.90
  -1   6 -11   35.30   10.60
   1  -6  11   39.20    6.50
  -2   6 -11   49.10   13.60
  -3   6 -11   93.89   10.90
  -3   6 -11   71.69   11.50
   3  -6  11   92.09    9.00
   3   5 -11  247.08   17.50
  -3  -5  11  251.87   13.30
   2   5 -11  429.76   28.00
   2   5 -11  433.06   25.00
   2   5 -11  396.66   28.80
  -2  -5  11  427.26   19.60
   1   5 -11  257.67   21.90
   1   5 -11  262.77   21.90
   1   5 -11  256.87   18.00
  -1  -5  11  235.68   13.30
   0   5 -11   58.99   11.80
   0   5 -11   54.69    9.40
   0  -5  11   57.39    6.30
  -1   5 -11  408.16   24.40
  -1   5 -11  409.66   28.80
   1  -5  11  390.26   20.30
  -2   5 -11  583.54   31.10
  -2   5 -11  565.84   34.50
   2  -5  11  563.44   27.50
  -3   5 -11  263.97   20.00
  -3   5 -11  223.28   12.30
  -4   5 -11   59.79    9.10
  -4   5 -11   46.10    6.30
   4  -5  11   58.99    7.20
   4   4 -11  316.37   19.40
  -4  -4  11  290.57   15.20
   3   4 -11  223.58   16.70
   2   4 -11  420.16   27.20
   2   4 -11  374.16   27.30
   2   4 -11  400.56   23.70
  -2  -4  11  400.36   18.80
   1   4 -11  471.95   26.30
   1   4 -11  466.95   29.70
   1   4 -11  452.55   29.50
   0   4 -11  734.23   40.80
   0   4 -11  788.12   37.70
   0   4 -11  812.72   43.00
   0  -4  11  780.62   33.20
  -1   4 -11   56.49    9.30
  -1   4 -11   54.99   11.40
   1  -4  11   43.40    7.60
  -2   4 -11   40.80    5.70
  -2   4 -11   24.30    8.40
  -2   4 -11   41.80    8.40
   2  -4  11   30.00    5.80
  -3   4 -11 2234.08   88.79
   3  -4  11 2320.57   89.59
  -4   4 -11    4.50    3.20
   4  -4  11   -6.90    4.50
   4  -4  11    7.50    4.30
   4   3 -11  316.57   19.90
  -4  -3  11  309.17   16.40
   3   3 -11  814.02   39.90
   3   3 -11  842.32   45.60
  -3  -3  11  841.82   35.30
   2   3 -11 1140.69   55.99
   2   3 -11 1310.77   64.89
   2   3 -11 1210.28   52.99
  -2  -3  11 1124.19   47.70
   1   3 -11  743.43   35.30
   1   3 -11  710.83   38.70
   1   3 -11  740.83   39.40
  -1  -3  11  712.23   30.70
   0   3 -11    7.60    4.90
   0   3 -11   16.80    5.10
   0   3 -11   13.10    6.10
   0  -3  11   11.50    3.20
   0  -3  11    7.10    5.40
  -1   3 -11 1037.50   50.69
  -1   3 -11 1052.09   41.70
  -1   3 -11 1049.40   46.20
   1  -3  11  978.90   51.19
   1  -3  11 1015.10   42.70
  -2   3 -11   48.00    8.60
  -2   3 -11   36.30    9.30
   2  -3  11   32.10    6.00
  -3   3 -11  681.83   32.60
  -3   3 -11  695.23   36.50
   3  -3  11  728.33   32.30
   3  -3  11  663.03   33.00
  -4   3 -11   38.30    7.10
   4  -3  11   34.40    6.90
   4  -3  11   65.09   13.30
  -5   3 -11   55.99    6.80
   5  -3  11   43.50    6.60
   4   2 -11  498.15   27.50
  -4  -2  11  520.15   24.30
   3   2 -11  319.27   24.00
   3   2 -11  305.87   19.80
  -3  -2  11  294.87   16.10
   2   2 -11  310.27   21.70
   2   2 -11  305.07   22.10
  -2  -2  11  277.37   15.00
   1   2 -11  515.15   30.20
   1   2 -11  505.65   21.10
   1   2 -11  491.85   29.00
   1   2 -11  526.65   26.40
  -1  -2  11  500.15   22.70
   0   2 -11  185.68   16.30
   0   2 -11  193.88   13.40
   0   2 -11  178.88   10.40
   0  -2  11  190.08   17.00
   0  -2  11  195.58   11.30
  -1   2 -11  913.11   37.90
  -1   2 -11  939.41   44.90
  -1   2 -11  892.91   40.50
  -1   2 -11  876.41   42.40
   1  -2  11  906.71   38.00
   1  -2  11  902.71   45.40
  -2   2 -11  352.36   23.40
  -2   2 -11  365.06   19.20
   2  -2  11  345.67   19.60
   2  -2  11  329.67   24.10
   2  -2  11  375.26   18.90
  -3   2 -11   85.99    9.10
  -3   2 -11   77.59   11.40
   3  -2  11   90.49    8.90
   3  -2  11   77.59    8.50
  -4   2 -11  430.96   23.90
   4  -2  11  418.36   21.50
   4  -2  11  419.96   23.10
  -5   2 -11   42.00    7.10
   5  -2  11   45.30    6.90
  -5  -1  11  171.28   11.10
   4   1 -11  889.01   53.09
   4   1 -11  647.14   35.90
  -4  -1  11  742.03   33.00
   3   1 -11  491.25   26.80
   3   1 -11  498.25   21.10
  -3  -1  11  505.15   23.70
   2   1 -11  217.28   17.60
   2   1 -11  210.28   14.80
   2   1 -11  195.28   16.80
   2   1 -11  222.58   11.40
  -2  -1  11  200.58   12.00
   1   1 -11 3311.17  129.39
   1   1 -11 3237.38  124.39
   1   1 -11 3231.28  120.69
  -1  -1  11 3167.78  120.89
   0   1 -11  924.31   44.10
   0   1 -11  864.21   41.20
   0   1 -11  904.71   41.90
   0   1 -11  907.81   37.20
   0  -1  11  899.61   44.80
   0  -1  11  885.11   37.00
  -1   1 -11 2573.94  100.29
  -1   1 -11 2431.46   97.09
  -1   1 -11 2315.47   94.89
  -1   1 -11 2463.45   93.79
   1  -1  11 2490.05  100.89
   1  -1  11 2389.56   94.49
   1  -1  11 2425.36   92.99
  -2   1 -11  320.97   18.00
  -2   1 -11  327.77   21.20
   2  -1  11  325.07   17.10
   2  -1  11  311.47   21.80
   2  -1  11  323.67   18.00
  -3   1 -11  516.15   26.90
   3  -1  11  530.75   26.40
   3  -1  11  518.35   25.50
  -4   1 -11  311.57   19.60
   4  -1  11  306.67   18.40
   4  -1  11  298.27   16.80
  -5   1 -11  465.05   25.20
   5  -1  11  492.15   24.70
  -5   0  11  270.87   15.20
   4   0 -11  140.19   13.00
   4   0 -11  147.29   16.00
   4   0 -11  133.39    8.30
  -4   0  11  134.89   10.60
   3   0 -11  410.26   29.60
   3   0 -11  409.46   23.20
   3   0 -11  408.46   19.60
  -3   0  11  405.86   20.50
   2   0 -11  493.65   28.80
   2   0 -11  498.15   22.40
   2   0 -11  476.25   24.70
  -2   0  11  471.45   22.30
   1   0 -11  147.19   12.90
   1   0 -11  159.18   12.40
   1   0 -11  152.58   14.20
   1   0 -11  144.59    9.50
  -1   0  11  146.49    9.40
  -1   0  11  160.98   11.60
   0   0 -11 1367.86   63.59
   0   0 -11 1386.46   55.39
   0   0 -11 1353.76   57.49
   0   0 -11 1376.56   56.59
   0   0  11 1288.07   54.99
  -1   0 -11  194.68   12.10
  -1   0 -11  198.18   13.40
  -1   0 -11  201.68   15.50
   1   0  11  181.48   12.00
   1   0  11  187.48   11.30
   1   0  11  182.08   14.90
  -2   0 -11  420.16   25.20
  -2   0 -11  359.76   20.00
   2   0  11  370.46   18.70
   2   0  11  365.26   19.70
   2   0  11  367.86   23.20
  -3   0 -11   52.29   10.80
   3   0  11   60.29    7.30
   3   0  11   42.80   10.10
   3   0  11   57.09    6.70
  -4   0 -11  393.86   23.20
   4   0  11  383.66   21.60
  -5   0 -11  282.97   18.20
   5   0  11  283.17   17.10
   5  -1 -11    0.00    2.30
  -5   1  11   -2.00    3.20
   4  -1 -11   43.00   10.10
   4  -1 -11   44.80    5.40
   4  -1 -11   54.89    8.70
  -4   1  11   43.80    6.70
   3  -1 -11 1253.27   70.59
   3  -1 -11 1214.38   52.99
   3  -1 -11 1275.57   51.09
  -3   1  11 1170.08   55.09
  -3   1  11 1273.37   51.09
   2  -1 -11   72.09    6.60
   2  -1 -11   66.09    9.60
   2  -1 -11   60.19    7.30
  -2   1  11   66.29    6.70
   1  -1 -11   10.60    3.50
   1  -1 -11   13.20    3.40
  -1   1  11    5.40    2.90
  -1   1  11   11.70    3.30
   0  -1 -11  321.67   18.40
   0  -1 -11  293.07   16.50
   0  -1 -11  325.47   22.20
   0  -1 -11  346.57   19.10
   0   1  11  306.67   17.00
  -1  -1 -11  264.47   15.60
  -1  -1 -11  251.47   14.90
  -1  -1 -11  269.47   15.50
   1   1  11  293.87   15.70
   1   1  11  281.07   15.60
  -2  -1 -11   74.99    7.50
  -2  -1 -11   71.59   10.90
  -2  -1 -11   48.20    6.90
   2   1  11   80.29    7.80
   2   1  11   76.99    9.50
   2   1  11   77.89    7.00
  -3  -1 -11  293.97   25.50
  -3  -1 -11  367.36   24.10
  -3  -1 -11  307.97   17.10
   3   1  11  341.47   17.10
   3   1  11  345.47   19.00
  -4  -1 -11   65.99   29.40
  -4  -1 -11   76.09   11.00
   4   1  11   88.49    9.00
  -5  -1 -11   63.69    9.50
   5   1  11   69.99    7.90
   5  -2 -11   27.40    4.80
  -5   2  11   29.00    6.30
   4  -2 -11   15.50    8.40
   4  -2 -11   20.00    4.60
  -4   2  11   19.00    4.90
  -4   2  11   11.00   11.90
   3  -2 -11  977.20   49.90
   3  -2 -11 1019.30   42.80
   3  -2 -11  999.80   43.60
  -3   2  11  961.30   41.70
  -3   2  11  990.00   46.50
   2  -2 -11  307.27   20.90
   2  -2 -11  299.77   17.00
   2  -2 -11  314.77   16.90
  -2   2  11  288.17   15.80
   1  -2 -11  183.88   20.50
   1  -2 -11  213.18   12.90
   1  -2 -11  214.98   15.40
   1  -2 -11  202.08   12.70
  -1   2  11  227.08   12.30
  -1   2  11  239.78   14.20
   0  -2 -11   20.00    4.70
   0  -2 -11    9.60    6.70
   0  -2 -11   18.70    4.70
  -1  -2 -11  152.98    9.80
  -1  -2 -11  130.09    9.80
  -1  -2 -11  123.09    9.50
  -1  -2 -11  115.39   17.40
  -1  -2 -11  133.39    9.20
   1   2  11  131.69    8.90
   1   2  11  136.69   11.80
  -2  -2 -11  438.06   23.40
  -2  -2 -11  463.75   21.50
  -2  -2 -11  467.45   28.70
   2   2  11  437.76   24.10
   2   2  11  465.15   23.00
  -3  -2 -11  223.28   22.50
  -3  -2 -11  221.58   16.70
  -3  -2 -11  232.98   14.00
   3   2  11  252.17   15.50
  -4  -2 -11  314.27   20.00
  -4  -2 -11  307.67   17.10
  -4  -2 -11  241.58   31.50
   4   2  11  313.27   18.20
  -5  -2 -11  126.59   11.60
   5   2  11  122.89   10.00
  -5   3  11   60.99   10.20
   4  -3 -11  255.57   21.30
   4  -3 -11  224.48   20.00
  -4   3  11  241.98   18.60
  -4   3  11  245.58   14.90
   3  -3 -11  630.34   29.60
  -3   3  11  602.24   32.70
  -3   3  11  616.44   28.40
   2  -3 -11   86.69    8.30
   2  -3 -11   65.89   15.30
   2  -3 -11   91.79   11.10
  -2   3  11   71.89    7.10
   1  -3 -11  700.03   31.40
   1  -3 -11  660.43   43.80
   1  -3 -11  690.23   33.70
  -1   3  11  674.03   32.30
  -1   3  11  702.93   29.70
   0  -3 -11  111.69    9.00
   0  -3 -11  126.69   10.10
   0  -3 -11  121.79   17.30
   0  -3 -11  118.59    9.30
   0   3  11  133.29    9.90
   0   3  11  122.99    8.60
  -1  -3 -11 1149.89   66.49
  -1  -3 -11 1192.38   50.09
   1   3  11 1245.48   49.99
   1   3  11 1186.48   47.00
   1   3  11 1158.78   50.29
  -2  -3 -11  654.73   30.40
  -2  -3 -11  719.93   33.30
  -2  -3 -11  741.73   40.30
   2   3  11  668.33   31.80
  -3  -3 -11  204.28   13.10
  -3  -3 -11  215.78   15.20
  -3  -3 -11  182.78   29.80
   3   3  11  201.98   13.80
  -4  -3 -11  189.58   31.50
  -4  -3 -11  204.38   13.60
  -4  -3 -11  209.28   15.40
   4   3  11  194.98   13.60
   4   3  11  175.38   13.00
  -5  -3 -11   38.60    6.40
  -5  -3 -11   37.60    7.30
   5   3  11   45.50    6.60
   4  -4 -11   40.60    6.70
  -4   4  11   38.90    8.90
   3  -4 -11  169.88   17.40
   3  -4 -11  178.28   13.00
  -3   4  11  184.18   15.20
  -3   4  11  168.28   11.80
   2  -4 -11  382.66   23.90
   2  -4 -11  384.46   20.40
   2  -4 -11  294.27   33.10
  -2   4  11  382.86   30.90
  -2   4  11  371.96   18.50
   1  -4 -11  911.41   56.39
   1  -4 -11  962.70   41.00
   1  -4 -11  893.41   39.00
   1  -4 -11  936.81   43.70
  -1   4  11  916.01   38.10
  -1   4  11  944.21   41.80
   0  -4 -11   40.80   13.00
   0  -4 -11   42.70    6.90
   0  -4 -11   40.80    6.00
   0  -4 -11   41.70    6.70
   0   4  11   45.10    6.90
   0   4  11   33.90    5.20
  -1  -4 -11  428.96   22.70
  -1  -4 -11  434.66   21.40
  -1  -4 -11  473.45   44.10
   1   4  11  434.06   22.50
  -2  -4 -11  106.69    9.00
  -2  -4 -11   96.49    9.90
   2   4  11   95.69    9.00
  -3  -4 -11  615.64   31.50
  -3  -4 -11  615.64   42.00
  -3  -4 -11  645.84   29.40
   3   4  11  623.74   30.20
  -4  -4 -11  104.09   12.60
  -4  -4 -11   94.69    9.60
   4   4  11  102.79    9.50
  -5  -4 -11   45.80    8.00
  -5  -4 -11   35.90    7.30
   5   4  11   50.19    5.80
   4  -5 -11  216.08   14.20
  -4   5  11  249.58   17.50
   3  -5 -11  303.67   23.80
   3  -5 -11  334.27   19.30
  -3   5  11  325.57   21.40
   2  -5 -11 1794.22   74.69
  -2   5  11 1897.61   77.89
   1  -5 -11  139.59   11.30
   1  -5 -11  135.09   12.50
   1  -5 -11  130.69   10.80
   0  -5 -11    7.60    3.00
   0  -5 -11    7.20    3.60
   0   5  11    7.00    3.50
  -1  -5 -11   79.89    8.40
  -1  -5 -11   76.39    8.20
   1   5  11   78.69    8.10
  -2  -5 -11 2588.54   99.09
  -2  -5 -11 2603.04  101.59
   2   5  11 2561.24  100.19
   2   5  11 2482.75   98.89
  -3  -5 -11  520.35   25.20
  -3  -5 -11  481.15   26.70
  -3  -5 -11  502.25   38.60
   3   5  11  480.45   25.00
   3   5  11  503.25   25.40
  -4  -5 -11  277.27   19.30
  -4  -5 -11  289.67   16.90
   4   5  11  297.27   16.70
  -5  -5 -11   31.70    5.60
   5   5  11   21.20    3.70
   4  -6 -11  246.78   14.90
  -4   6  11  266.77   17.50
   3  -6 -11    7.40    3.90
   3  -6 -11   -7.00    8.10
  -3   6  11    8.30    5.40
   2  -6 -11  862.21   38.70
   2  -6 -11  811.02   42.20
   2  -6 -11  850.81   37.20
  -2   6  11  790.82   40.30
   1  -6 -11  473.95   23.70
   1  -6 -11  401.26   24.80
   1  -6 -11  482.75   24.60
   0  -6 -11   36.90    6.80
   0   6  11   28.60    6.40
   0   6  11   22.30    5.70
  -1  -6 -11  114.39   17.90
  -1  -6 -11  111.09   10.10
   1   6  11   92.59    9.60
   1   6  11  111.29   10.10
  -2  -6 -11   55.59    8.40
  -2  -6 -11   65.59    8.30
   2   6  11   37.30    6.30
   2   6  11   58.19    8.20
  -3  -6 -11  927.81   39.70
  -3  -6 -11  754.12   61.29
   3   6  11  936.91   40.50
   3   6  11  916.31   39.40
  -4  -6 -11   88.69    8.90
   4   6  11   66.69    6.40
   4   6  11   69.89    8.80
   3  -7 -11   37.50    6.30
  -3   7  11   45.60    8.50
   2  -7 -11  569.24   31.30
  -2   7  11  563.24   30.20
   1  -7 -11  159.18   12.50
   1  -7 -11  151.48   12.50
  -1   7  11  138.69   12.80
   0  -7 -11   97.69    9.90
   0  -7 -11  102.59    9.90
   0   7  11  100.59    9.70
  -1  -7 -11  162.98   13.00
  -1  -7 -11  185.68   13.40
   1   7  11  174.38   12.90
   1   7  11  169.58   12.90
  -2  -7 -11  300.77   17.90
   2   7  11  289.37   17.00
  -3  -7 -11  190.68   13.10
   3   7  11  177.18   13.60
   3   7  11  171.08   11.00
  -4  -7 -11  273.67   15.20
   4   7  11  219.48   15.10
   3  -8 -11   29.50    5.60
  -3   8  11   47.80    7.40
   2  -8 -11  313.87   18.00
   2  -8 -11  267.67   16.70
  -2   8  11  283.97   18.30
   1  -8 -11   -4.80    5.10
   1  -8 -11   -4.10    3.20
  -1   8  11   -0.30    5.30
   0  -8 -11  452.65   25.90
   0  -8 -11  502.35   25.50
   0   8  11  504.85   25.60
  -1  -8 -11   87.09    9.70
   1   8  11  108.39   14.70
   1   8  11   83.59    9.70
  -2  -8 -11    8.60    4.00
   2   8  11    8.80    4.50
  -3  -8 -11  140.99   11.10
   2  -9 -11   86.89    9.30
   2  -9 -11   70.49    8.70
  -2   9  11   71.59   11.80
  -2   9  11   83.99   11.70
   1  -9 -11  277.77   16.60
  -1   9  11  258.67   15.40
   0  -9 -11   14.70    5.10
   0   9  11   13.80    6.90
   0   9  11   12.00    5.30
   0   9  11   16.30    4.00
  -1  -9 -11  163.68   12.50
   1   9  11  170.98   16.30
   1   9  11  152.68   12.40
  -2  -9 -11   37.80    6.10
   1   7 -12   20.90    8.00
   1   7 -12   19.80    6.30
  -1  -7  12   19.80    4.20
   0   7 -12   40.90   10.60
   0   7 -12   50.99    8.50
   0  -7  12   43.90    5.80
  -1   7 -12   15.10    5.50
  -1   7 -12   14.50    7.70
   1  -7  12   18.70    4.20
  -2   7 -12  112.89   10.70
  -2   7 -12   85.29   13.00
   2  -7  12   98.99    8.50
   2   6 -12  325.87   20.10
   2   6 -12  308.57   22.00
   1   6 -12  358.36   25.70
   1   6 -12  386.86   22.60
  -1  -6  12  348.37   17.50
   0   6 -12  107.19   12.00
   0   6 -12   83.39   14.30
   0  -6  12   98.79   11.30
   1  -6  12  961.00   42.80
  -2   6 -12  103.19   11.50
  -2   6 -12  102.19   15.30
   2  -6  12   92.49    9.30
  -3   6 -12   14.40    6.80
  -3   6 -12   25.40    6.60
   3  -6  12   28.50    5.30
   3   5 -12    8.20    4.90
  -3  -5  12    8.00    3.20
   2   5 -12   80.29   17.00
   2   5 -12   84.79   14.30
  -2  -5  12   89.99    7.60
   1   5 -12   84.39   14.00
   1   5 -12   90.89   11.10
   1   5 -12   80.59   13.40
  -1  -5  12   86.69    7.80
   0   5 -12  550.14   35.60
   0   5 -12  607.54   31.80
   0  -5  12  577.44   26.50
  -1   5 -12   24.80    7.10
  -1   5 -12   36.70   10.50
   1  -5  12   28.40    5.80
  -2   5 -12  169.68   14.70
  -2   5 -12  152.48   17.30
   2  -5  12  178.88   12.50
  -3   5 -12  297.17   21.70
  -3   5 -12  330.17   20.70
   3  -5  12  308.47   17.80
  -4   5 -12   96.89   10.10
   4  -5  12  128.29   13.20
   4   4 -12  187.48   14.00
  -4  -4  12  177.08   10.60
   3   4 -12  109.79   11.60
  -3  -4  12  114.69    8.70
   2   4 -12  144.89   16.60
   2   4 -12  132.09   15.20
   2   4 -12  136.89   13.20
  -2  -4  12  126.99    9.30
   1   4 -12  127.39   12.40
   1   4 -12  134.89   15.70
   1   4 -12  100.19   14.10
  -1  -4  12  119.69    8.90
   0   4 -12  107.29   11.60
   0   4 -12  112.69   13.90
   0   4 -12  100.29   13.10
   0  -4  12  117.79    9.20
  -1   4 -12  414.36   28.40
  -1   4 -12  436.86   24.90
   1  -4  12  394.26   20.80
  -2   4 -12   97.89   11.00
  -2   4 -12   74.59   13.00
  -2   4 -12   85.79    6.80
   2  -4  12   87.39    9.20
  -3   4 -12  107.39   11.50
  -3   4 -12  103.89    8.80
   3  -4  12  107.69    9.90
  -4   4 -12  574.24   29.40
  -4   4 -12  582.14   26.30
   4  -4  12  564.54   26.50
   4   3 -12   42.30    7.70
  -4  -3  12   49.70    6.20
   3   3 -12  339.27   26.20
   3   3 -12  366.56   22.20
  -3  -3  12  358.36   18.00
   2   3 -12  650.03   32.60
   2   3 -12  567.04   34.90
   2   3 -12  662.93   37.80
  -2  -3  12  618.04   27.70
   1   3 -12 1202.58   59.49
   1   3 -12 1282.67   60.09
   1   3 -12 1276.97   55.39
   0   3 -12  966.80   56.19
   0   3 -12 1109.39   52.59
   0  -3  12 1111.59   44.40
  -1   3 -12  252.97   13.30
  -1   3 -12  260.07   17.70
  -1   3 -12  241.18   20.50
   1  -3  12  259.87   19.10
  -2   3 -12 2235.28   93.39
  -2   3 -12 2152.08   84.89
  -2   3 -12 2160.18   88.89
   2  -3  12 2184.38   85.59
  -3   3 -12  632.94   31.10
  -3   3 -12  649.34   35.90
   3  -3  12  695.43   31.40
   3  -3  12  673.83   32.80
  -4   3 -12  185.18   13.00
   4  -3  12  179.88   13.50
   4  -3  12  170.68   12.10
   4   2 -12  309.57   19.50
  -4  -2  12  286.97   16.00
   3   2 -12  220.88   16.50
   3   2 -12  212.68   20.00
  -3  -2  12  232.08   13.60
   2   2 -12 1177.18   58.39
   2   2 -12 1224.98   54.79
   2   2 -12 1468.25   67.69
  -2  -2  12 1185.38   50.49
   1   2 -12  189.58   14.10
   1   2 -12  173.48   15.90
   1   2 -12  163.28    8.70
   1   2 -12  169.28   16.30
  -1  -2  12  167.48   10.70
   0   2 -12  254.37   12.90
   0   2 -12  226.98   19.50
   0   2 -12  263.47   16.70
   0   2 -12  244.98   18.60
   0  -2  12  235.08   20.50
   0  -2  12  231.08   13.60
  -1   2 -12  829.12   38.10
  -1   2 -12  799.22   40.20
  -1   2 -12  836.62   42.50
  -1   2 -12  827.62   35.10
   1  -2  12  799.92   43.70
   1  -2  12  820.22   35.40
  -2   2 -12  122.29    9.80
  -2   2 -12  110.39   11.10
  -2   2 -12  112.09   13.40
   2  -2  12  118.89   10.50
   2  -2  12  122.79    9.90
  -3   2 -12  567.74   31.80
  -3   2 -12  603.14   29.60
   3  -2  12  590.64   28.20
   3  -2  12  623.14   30.10
  -4   2 -12  275.57   20.30
   4  -2  12  286.47   17.70
  -5   2 -12   33.20    5.60
   5  -2  12   25.30    6.00
   4   1 -12    8.80    5.00
  -4  -1  12    5.50    3.90
   3   1 -12  280.67   22.60
   3   1 -12  262.47   18.20
  -3  -1  12  284.97   15.90
   2   1 -12  324.97   15.70
   2   1 -12  312.17   20.80
   2   1 -12  348.17   23.90
  -2  -1  12  328.87   17.10
   1   1 -12  806.42   38.60
   1   1 -12  845.82   42.40
   1   1 -12  915.91   44.10
   1   1 -12  846.72   35.20
  -1  -1  12  858.81   35.90
   0   1 -12  429.26   20.90
   0   1 -12  445.76   23.50
   0   1 -12  442.16   27.40
   0   1 -12  463.85   29.40
   0  -1  12  467.95   29.00
   0  -1  12  444.56   21.20
  -1   1 -12 1576.84   65.79
  -1   1 -12 1461.05   60.39
  -1   1 -12 1420.66   62.29
  -1   1 -12 1468.85   58.69
   1  -1  12 1424.66   66.09
   1  -1  12 1480.65   58.19
   1  -1  12 1360.26   59.39
  -2   1 -12  286.07   16.70
  -2   1 -12  287.77   20.20
   2  -1  12  289.57   16.00
   2  -1  12  266.67   16.50
   2  -1  12  262.77   23.50
  -3   1 -12  590.64   29.60
   3  -1  12  602.74   29.50
   3  -1  12  570.14   27.40
  -4   1 -12  697.03   34.40
   4  -1  12  693.43   36.30
   4  -1  12  722.83   34.00
  -5   1 -12  292.47   17.70
   5  -1  12  278.27   16.70
   4   0 -12   32.70   15.50
   4   0 -12   37.50    7.60
  -4   0  12   31.10    6.00
   3   0 -12  329.77   19.40
   3   0 -12  285.97   15.10
   3   0 -12  264.67   22.30
  -3   0  12  303.27   16.70
   2   0 -12  551.34   31.80
   2   0 -12  515.15   27.30
   2   0 -12  567.94   24.90
   1   0 -12   94.29   10.90
   1   0 -12  109.29   12.70
   1   0 -12  104.39    9.30
   1   0 -12   99.69    7.80
  -1   0  12  104.99    8.20
  -1   0  12  117.19   13.10
   0   0 -12 4350.86  158.68
   0   0 -12 3870.21  151.98
   0   0 -12 3909.51  154.88
   0   0 -12 4261.37  151.08
   0   0  12 3928.11  149.88
   0   0  12 4001.30  159.28
   0   0  12 3883.81  152.18
  -1   0 -12  253.47   15.00
  -1   0 -12  262.07   15.70
  -1   0 -12  270.77   16.90
  -1   0 -12  257.67   18.90
   1   0  12  249.97   19.00
   1   0  12  258.57   14.40
   1   0  12  251.17   15.30
  -2   0 -12  532.95   28.60
  -2   0 -12  513.55   26.00
   2   0  12  508.35   25.70
   2   0  12  518.55   24.40
  -3   0 -12   91.79    9.70
   3   0  12   88.99    8.50
   3   0  12   80.59    8.60
  -4   0 -12   20.80    5.70
   4   0  12   16.30    5.00
  -5   0 -12   72.69    8.70
   5   0  12   70.99    7.50
   4  -1 -12    3.90    2.60
   4  -1 -12   10.50    6.70
   4  -1 -12   12.20    5.70
  -4   1  12    3.60    3.80
   3  -1 -12   95.29    8.20
   3  -1 -12   96.99   10.30
   3  -1 -12  109.49   14.30
  -3   1  12   96.59   20.20
  -3   1  12  104.99    9.20
   2  -1 -12   42.00    6.10
   2  -1 -12   43.40    9.00
   2  -1 -12   50.29    7.40
   1  -1 -12   64.69    8.80
   1  -1 -12   54.19    5.90
   1  -1 -12   38.20    7.30
  -1   1  12   52.79    7.70
  -1   1  12   45.00    5.50
   0  -1 -12  108.39   10.20
   0  -1 -12   92.19    9.30
   0  -1 -12  111.29    8.60
   0   1  12  116.19    8.40
  -1  -1 -12    6.80    3.00
  -1  -1 -12    8.10    3.60
   1   1  12   -0.20    3.50
   1   1  12    3.50    2.80
   1   1  12    5.20    3.30
  -2  -1 -12  206.98   14.30
  -2  -1 -12  194.88   13.10
   2   1  12  210.78   17.30
   2   1  12  221.18   12.80
   2   1  12  207.38   13.60
  -3  -1 -12 2260.67   88.19
   3   1  12 2096.89   83.29
   3   1  12 2147.59   86.59
  -4  -1 -12  160.88   13.50
   4   1  12  162.28   12.70
  -5  -1 -12  289.17   18.20
   5   1  12  292.27   17.00
   4  -2 -12   95.19    8.10
  -4   2  12  100.09    9.10
  -4   2  12   92.79   12.70
   3  -2 -12  383.06   26.60
   3  -2 -12  377.16   19.90
   3  -2 -12  367.36   21.00
  -3   2  12  348.57   22.90
  -3   2  12  387.16   19.90
   2  -2 -12  456.75   28.00
   2  -2 -12  459.25   23.40
   2  -2 -12  467.75   25.10
   1  -2 -12 1577.14   60.49
   1  -2 -12 1350.46   65.39
   1  -2 -12 1437.76   58.99
   1  -2 -12 1363.06   74.39
  -1   2  12 1593.34   58.89
  -1   2  12 1557.54   62.19
   0  -2 -12  297.67   16.50
   0  -2 -12  290.47   17.50
   0  -2 -12  260.97   26.40
   0   2  12  283.37   16.80
   0   2  12  297.07   15.30
  -1  -2 -12  401.06   26.00
  -1  -2 -12  457.15   25.50
  -1  -2 -12  373.76   20.30
   1   2  12  373.86   18.50
   1   2  12  355.76   22.60
   1   2  12  361.16   20.30
  -2  -2 -12  419.36   21.30
  -2  -2 -12  431.96   28.50
  -2  -2 -12  483.15   24.30
   2   2  12  490.55   23.90
   2   2  12  411.46   24.90
   2   2  12  462.65   21.20
  -3  -2 -12 1291.17   55.69
   3   2  12 1259.27   54.29
  -4  -2 -12   80.89   10.20
  -4  -2 -12  131.89   12.20
   4   2  12  120.29   10.40
  -5  -2 -12   93.69    9.80
   5   2  12  113.59    9.40
   4  -3 -12   50.29    6.20
  -4   3  12   27.60    7.80
  -4   3  12   48.50    6.70
   3  -3 -12  749.53   42.30
   3  -3 -12  776.22   35.60
  -3   3  12  809.02   34.60
  -3   3  12  780.82   39.40
   2  -3 -12 1026.50   48.90
   2  -3 -12  988.50   43.60
  -2   3  12  991.60   42.00
   1  -3 -12  259.87   15.30
   1  -3 -12  209.58   25.10
   1  -3 -12  249.18   17.10
  -1   3  12  239.78   13.70
  -1   3  12  248.38   15.80
   0  -3 -12  394.06   20.60
   0  -3 -12  365.16   20.40
   0  -3 -12  396.46   20.70
   0  -3 -12  340.37   31.50
   0   3  12  397.36   21.10
   0   3  12  381.36   18.50
  -1  -3 -12  458.45   23.40
  -1  -3 -12  407.66   36.30
  -1  -3 -12  438.46   21.30
   1   3  12  478.65   23.50
   1   3  12  429.16   20.50
  -2  -3 -12  434.46   23.20
  -2  -3 -12  417.76   29.60
  -2  -3 -12  407.66   20.80
   2   3  12  422.96   22.50
  -3  -3 -12  110.69   11.00
  -3  -3 -12  105.49    9.70
   3   3  12   93.19    9.30
  -4  -3 -12  552.14   28.80
  -4  -3 -12  449.16   26.60
   4   3  12  598.14   27.70
  -5  -3 -12  156.98   14.10
   5   3  12  176.78   11.60
   4  -4 -12  274.57   15.90
  -4   4  12  272.47   19.00
   3  -4 -12  257.07   21.90
   3  -4 -12  280.37   17.00
  -3   4  12  285.17   19.90
  -3   4  12  279.07   15.80
   2  -4 -12  366.46   35.30
   2  -4 -12  441.86   23.30
  -2   4  12  474.65   26.00
  -2   4  12  444.76   21.30
   1  -4 -12   49.00    7.40
   1  -4 -12   40.50    7.60
   1  -4 -12   54.19    8.50
  -1   4  12   50.99    6.40
  -1   4  12   55.59    8.30
   0  -4 -12  562.84   25.10
   0  -4 -12  525.75   41.10
   0  -4 -12  470.35   25.40
   0  -4 -12  560.84   26.60
   0   4  12  457.35   24.20
   0   4  12  554.94   27.00
  -1  -4 -12  655.43   31.60
  -1  -4 -12  656.33   29.70
   1   4  12  651.13   31.30
  -2  -4 -12  653.73   43.20
  -2  -4 -12  623.84   28.80
   2   4  12  556.94   29.30
  -3  -4 -12  537.05   41.00
  -3  -4 -12  572.44   27.50
  -3  -4 -12  594.74   30.20
   3   4  12  594.24   28.90
  -4  -4 -12   63.99    9.60
  -4  -4 -12   66.29    8.50
   4   4  12   61.19    7.60
  -5  -4 -12   -8.30    5.10
  -5  -4 -12   -5.80    5.20
   5   4  12   10.80    3.10
   4  -5 -12  335.57   18.20
  -4   5  12  353.16   21.30
   3  -5 -12  214.48   14.70
  -3   5  12  232.58   17.50
   2  -5 -12 1274.77   60.29
   2  -5 -12 1309.77   56.29
  -2   5  12 1402.86   59.69
   1  -5 -12  537.15   29.60
   1  -5 -12  581.84   28.40
  -1   5  12  562.04   29.00
   0  -5 -12  507.35   24.80
   0  -5 -12  482.95   25.60
   0   5  12  472.95   25.60
  -1  -5 -12  801.22   48.90
  -1  -5 -12  933.71   39.20
   1   5  12  901.11   40.50
  -2  -5 -12 1232.98   51.79
  -2  -5 -12 1225.68   53.99
   2   5  12 1266.67   53.39
  -3  -5 -12  985.90   65.69
  -3  -5 -12  906.51   42.90
  -3  -5 -12  867.91   39.70
   3   5  12  908.61   41.00
  -4  -5 -12  492.75   26.10
  -4  -5 -12  466.05   23.20
   4   5  12  448.66   23.10
   3  -6 -12  794.22   37.30
  -3   6  12  862.51   40.70
   2  -6 -12  514.15   26.40
   2  -6 -12  486.35   30.00
  -2   6  12  518.05   28.60
   1  -6 -12  326.37   19.40
   1  -6 -12  315.37   18.20
   0  -6 -12  133.69   11.40
   0  -6 -12  144.69   11.90
   0   6  12  134.69   11.80
  -1  -6 -12  481.35   25.70
  -1  -6 -12  463.45   24.20
   1   6  12  492.55   25.40
  -2  -6 -12  847.72   45.60
  -2  -6 -12  852.61   38.30
   2   6  12  863.81   39.10
  -3  -6 -12  134.79   13.30
  -3  -6 -12  123.99   12.30
   3   6  12  103.49   15.80
  -4  -6 -12  345.47   18.00
   4   6  12  315.87   16.50
   3  -7 -12  797.22   36.00
  -3   7  12  808.62   38.30
   2  -7 -12  262.87   16.90
  -2   7  12  278.77   18.80
   1  -7 -12  177.48   13.50
   1  -7 -12  166.98   13.00
  -1   7  12  156.18   13.70
   0  -7 -12  616.34   31.00
   0  -7 -12  594.24   29.30
  -1  -7 -12  276.77   16.90
  -1  -7 -12  262.97   17.80
   1   7  12  255.27   16.60
  -2  -7 -12 1235.18   51.99
   2   7  12 1215.88   51.59
  -3  -7 -12  133.69   11.10
   3   7  12  137.79    9.70
   2  -8 -12  570.24   27.10
   2  -8 -12  499.45   26.60
  -2   8  12  570.44   28.20
   1  -8 -12  536.35   26.90
   1  -8 -12  573.94   28.40
  -1   8  12  555.54   28.60
   0  -8 -12  466.95   23.90
   0  -8 -12  431.76   24.60
   0   8  12  467.05   24.40
  -1  -8 -12  308.37   18.10
   1   8  12  283.47   17.10
  -2  -8 -12  170.28   12.60
  -3  -8 -12   71.49    8.20
   1  -9 -12   14.90    6.00
  -1   9  12   11.10    3.40
   0  -9 -12  496.35   24.30
   0   9  12  432.96   22.30
   0   9  12  551.94   31.00
  -1  -9 -12   39.10    6.60
   1   9  12   32.90    8.60
  -2  -9 -12  140.09   11.20
   1   7 -13  164.18   19.40
   0   7 -13   68.49   11.20
   0   7 -13   81.59    9.50
   0  -7  13   71.09    6.60
  -1   7 -13   64.19    9.30
  -1   7 -13   51.69   10.40
   1  -7  13   47.50    8.50
   2   6 -13   91.09   10.20
   2   6 -13   76.59   12.70
  -2  -6  13   97.39    7.30
   1   6 -13  104.99   11.40
   1   6 -13   79.29   12.90
  -1  -6  13   87.29    7.40
   0   6 -13   85.59   14.30
   0   6 -13  107.19   11.70
   0  -6  13  100.89    8.40
  -1   6 -13   57.69    9.20
  -1   6 -13   78.49   13.50
   1  -6  13   73.29    7.90
  -2   6 -13  568.44   29.30
  -2   6 -13  519.65   31.50
   2  -6  13  558.14   26.00
   3   5 -13  103.59   10.40
  -3  -5  13   67.29    6.70
   2   5 -13   24.30    8.10
   2   5 -13   28.30    7.20
  -2  -5  13   20.40    4.20
   1   5 -13  186.68   20.00
   1   5 -13  225.28   16.60
   1   5 -13  204.38   20.70
   0   5 -13 2957.80  122.29
   0   5 -13 2961.30  116.69
   0  -5  13 2840.12  110.69
  -1   5 -13   87.29   14.50
  -1   5 -13   80.19   11.80
   1  -5  13  104.49    9.20
  -2   5 -13  118.99   15.00
  -2   5 -13  129.19   12.90
   2  -5  13  136.89   10.90
  -3   5 -13    4.10    7.60
  -3   5 -13   11.00    5.50
   3  -5  13   14.70    4.40
   3   4 -13   34.30    7.30
  -3  -4  13   30.20    4.60
   2   4 -13  404.96   30.00
   2   4 -13  434.26   25.10
   1   4 -13  156.38   17.20
   1   4 -13  160.88   17.80
   1   4 -13  186.48   14.80
  -1  -4  13  164.88   10.90
   0   4 -13 1094.19   49.50
   0   4 -13 1118.99   54.89
   0   4 -13  984.80   53.09
   0  -4  13 1090.19   44.70
  -1   4 -13  103.49   11.90
  -1   4 -13  124.79   15.60
   1  -4  13  139.49   10.70
  -2   4 -13  367.36   24.80
  -2   4 -13  265.27   14.60
  -2   4 -13  362.06   21.80
   2  -4  13  356.86   18.90
  -3   4 -13  220.58   16.30
  -3   4 -13  184.88   17.80
  -3   4 -13  183.88   11.20
   3  -4  13  213.78   13.70
  -4   4 -13    4.70    3.40
  -4   4 -13   18.60    5.30
   4  -4  13   10.10    5.10
   4   3 -13  563.94   28.30
   3   3 -13  103.19   10.80
  -3  -3  13   88.49    8.20
   2   3 -13  119.69   15.10
   2   3 -13  156.98   16.20
   2   3 -13  125.89   12.50
  -2  -3  13  133.99    9.80
   1   3 -13  733.83   41.70
   1   3 -13  807.92   45.60
   1   3 -13  756.02   37.50
  -1  -3  13  768.12   33.20
   0   3 -13  124.89   16.60
   0   3 -13  115.19   11.60
   0   3 -13   98.09   15.40
   0  -3  13  105.19    8.90
  -1   3 -13 1620.34   70.99
  -1   3 -13 1550.94   65.19
  -1   3 -13 1392.16   58.49
   1  -3  13 1536.05   61.39
  -2   3 -13  344.27   18.40
  -2   3 -13  370.86   25.30
  -2   3 -13  367.16   22.50
   2  -3  13  371.76   19.90
  -3   3 -13  250.57   17.50
  -3   3 -13  240.68   14.70
   3  -3  13  250.47   15.30
   3  -3  13  175.38   17.80
  -4   3 -13  184.58   14.40
  -4   3 -13  192.08   12.60
   4  -3  13  195.58   12.60
   4  -3  13  193.68   17.30
   4   2 -13  314.97   19.40
  -4  -2  13  305.27   16.10
   3   2 -13 1166.78   52.09
  -3  -2  13 1172.48   48.40
   2   2 -13  742.13   41.10
   2   2 -13  719.63   35.70
  -2  -2  13  715.53   31.80
   1   2 -13  812.92   35.70
   1   2 -13  967.70   48.30
   1   2 -13  953.20   43.40
   1   2 -13  962.20   48.50
  -1  -2  13 1024.50   40.00
   0   2 -13  845.92   40.00
   0   2 -13  719.53   40.40
   0   2 -13  705.83   38.90
   0   2 -13  728.03   31.00
  -1   2 -13  590.24   34.50
  -1   2 -13  573.04   30.20
  -1   2 -13  597.14   29.00
   1  -2  13  607.74   27.80
  -2   2 -13 1446.26   58.69
  -2   2 -13 1411.26   64.59
  -2   2 -13 1414.16   61.19
   2  -2  13 1411.76   58.39
   2  -2  13 1466.55   64.69
  -3   2 -13  370.26   20.80
  -3   2 -13  357.26   22.10
  -3   2 -13  342.27   23.30
   3  -2  13  386.56   20.10
   3  -2  13  369.66   21.70
  -4   2 -13  196.68   14.10
   4  -2  13  253.47   15.70
   4  -2  13  207.68   13.40
   4   1 -13  240.28   16.80
  -4  -1  13  244.78   14.10
   3   1 -13   34.10    7.20
   3   1 -13   40.00   10.50
  -3  -1  13   32.80    5.70
   2   1 -13  739.43   31.10
   2   1 -13  758.22   36.70
  -2  -1  13  799.12   33.70
   1   1 -13  248.98   13.40
   1   1 -13  250.37   20.60
   1   1 -13  267.07   17.10
   1   1 -13  243.88   19.40
   0   1 -13 1313.07   61.29
   0   1 -13 1310.37   59.69
   0   1 -13 1334.17   56.49
   0   1 -13 1337.77   53.39
   0  -1  13 1336.27   53.69
  -1   1 -13  336.77   23.40
  -1   1 -13  319.17   21.10
  -1   1 -13  326.87   17.70
  -1   1 -13  349.47   20.10
   1  -1  13  341.57   17.90
   1  -1  13  317.57   18.80
  -2   1 -13   93.69    9.90
  -2   1 -13   84.69    8.50
   2  -1  13   83.19    8.40
   2  -1  13   75.19    8.50
  -3   1 -13  680.03   33.40
   3  -1  13  691.43   31.50
   3  -1  13  698.43   33.60
  -4   1 -13  173.88   13.10
   4  -1  13  142.09   11.50
   4  -1  13  150.38   12.30
  -5   1 -13  114.69    9.90
   5  -1  13  114.49    9.40
   4   0 -13   34.00    7.30
  -4   0  13   27.90    5.60
   3   0 -13   82.89    6.50
   3   0 -13   84.19   10.10
   3   0 -13   76.09   13.00
  -3   0  13   89.59    8.60
   2   0 -13   73.09    9.80
   2   0 -13   33.40   13.40
   2   0 -13   66.69    6.40
  -2   0  13   71.79    7.50
   1   0 -13  866.61   37.00
   1   0 -13  852.41   43.20
   1   0 -13  859.51   39.10
  -1   0  13  900.21   37.30
   0   0 -13   56.59   10.90
   0   0 -13   43.40    7.30
   0   0 -13   40.60    6.10
   0   0 -13   54.59    8.60
   0   0  13   44.80    9.90
   0   0  13   39.50   10.00
   0   0  13   44.80    6.40
  -1   0 -13  178.88   13.00
  -1   0 -13  196.38   12.70
  -1   0 -13  183.18   14.50
  -1   0 -13  196.48   16.90
   1   0  13  163.18   12.60
   1   0  13  203.48   12.40
   1   0  13  198.18   17.50
  -2   0 -13 1133.59   47.50
  -2   0 -13 1108.79   47.20
   2   0  13 1007.30   47.20
   2   0  13 1075.29   47.20
  -3   0 -13  332.27   20.10
   3   0  13  327.77   17.80
   3   0  13  334.67   19.80
  -4   0 -13  167.68   14.00
   4   0  13  180.58   18.30
  -5   0 -13  188.18   13.30
   5   0  13  182.78   12.30
   4  -1 -13  172.88   10.10
  -4   1  13  222.08   13.10
   3  -1 -13 1120.49   44.70
   3  -1 -13 1065.79   47.00
   3  -1 -13  996.30   53.19
  -3   1  13 1091.39   45.30
   2  -1 -13  153.58   10.80
   2  -1 -13  140.89   15.50
   2  -1 -13  164.88   13.30
  -2   1  13  152.88   11.10
   1  -1 -13    6.40    4.00
   1  -1 -13    4.60    3.90
   1  -1 -13    4.20    2.50
  -1   1  13    6.00    3.00
  -1   1  13    3.10    3.40
   0  -1 -13 1531.05   78.79
   0  -1 -13 1581.94   64.09
   0  -1 -13 1616.74   64.29
   0   1  13 1571.14   65.59
   0   1  13 1640.44   62.99
  -1  -1 -13  103.69    9.30
  -1  -1 -13   96.89    9.70
  -1  -1 -13  114.99    9.40
   1   1  13  137.79   10.40
   1   1  13   98.29    8.60
   1   1  13   87.39   11.30
  -2  -1 -13   46.20    7.20
  -2  -1 -13   57.79    8.40
   2   1  13   58.49    8.40
   2   1  13   47.90   10.30
   2   1  13   63.99    7.00
  -3  -1 -13  209.98   15.30
   3   1  13  218.18   14.90
   3   1  13  200.48   13.10
  -4  -1 -13   29.10    6.60
   4   1  13   21.90    5.50
  -5  -1 -13   91.29    9.00
   5   1  13   79.19    7.80
   4  -2 -13  300.47   15.80
  -4   2  13  324.77   17.10
   3  -2 -13 1273.77   61.39
   3  -2 -13 1228.88   53.29
   3  -2 -13 1273.77   52.19
  -3   2  13 1284.47   51.79
  -3   2  13 1200.28   56.89
   2  -2 -13   35.20    7.30
   2  -2 -13   53.89    6.60
  -2   2  13   55.99    7.10
   1  -2 -13 1114.19   49.70
   1  -2 -13  973.80   43.30
   1  -2 -13  977.80   47.20
  -1   2  13 1026.30   42.20
  -1   2  13  984.50   45.30
   0  -2 -13  161.48   13.00
   0  -2 -13  175.28   12.20
   0   2  13  164.78   12.20
   0   2  13  158.88   15.30
   0   2  13  176.78   11.20
  -1  -2 -13 2165.18   84.89
   1   2  13 2127.89   82.29
   1   2  13 2200.98   85.39
   1   2  13 2031.10   88.79
  -2  -2 -13  111.39   12.90
  -2  -2 -13  155.48   12.10
   2   2  13  109.39   12.40
   2   2  13  128.99    9.70
  -3  -2 -13  327.67   19.50
  -3  -2 -13  245.08   16.40
   3   2  13  314.67   18.50
  -4  -2 -13   24.50    7.60
   4   2  13   20.00    5.40
  -5  -2 -13   89.39   10.90
   5   2  13   80.39    7.60
   4  -3 -13  244.38   14.00
  -4   3  13  247.78   18.00
  -4   3  13  254.87   14.40
   3  -3 -13  679.23   31.10
   3  -3 -13  633.04   37.70
  -3   3  13  645.04   34.70
  -3   3  13  669.83   30.00
   2  -3 -13  414.56   22.20
   2  -3 -13  486.55   32.20
  -2   3  13  386.16   24.50
  -2   3  13  399.36   20.90
   1  -3 -13  341.67   19.10
   1  -3 -13  341.67   21.60
  -1   3  13  309.27   19.70
  -1   3  13  324.47   17.40
   0  -3 -13   77.99    8.20
   0  -3 -13   76.99   19.70
   0  -3 -13   66.49    8.40
   0   3  13   67.49    7.10
   0   3  13   73.39    8.20
  -1  -3 -13  147.29   12.00
  -1  -3 -13  175.98   12.70
   1   3  13  159.08   10.70
   1   3  13  162.38   12.40
  -2  -3 -13  881.01   48.50
  -2  -3 -13  853.21   39.90
  -2  -3 -13  828.12   36.90
   2   3  13  882.51   39.70
  -3  -3 -13 1289.77   53.79
  -3  -3 -13 1154.48   49.30
   3   3  13 1158.58   51.69
  -4  -3 -13  160.48   13.30
  -4  -3 -13  139.99   13.40
   4   3  13  162.88   12.10
  -5  -3 -13   11.50    4.50
   5   3  13   25.50    5.20
   4  -4 -13   56.29    6.00
  -4   4  13   58.39   10.00
   3  -4 -13   66.29    7.60
   3  -4 -13   50.29   13.80
  -3   4  13   48.80    9.00
   2  -4 -13  359.16   24.60
   2  -4 -13  377.86   20.70
  -2   4  13  355.66   18.60
  -2   4  13  355.76   22.60
   1  -4 -13  377.76   23.80
   1  -4 -13  384.36   21.60
  -1   4  13  380.06   22.50
  -1   4  13  435.66   24.80
   0  -4 -13  918.71   39.90
   0   4  13  886.11   40.30
   0   4  13  809.32   36.00
  -1  -4 -13  180.98   12.40
  -1  -4 -13  165.88   13.20
   1   4  13  182.88   13.30
  -2  -4 -13  840.62   37.30
  -2  -4 -13  869.81   40.00
  -2  -4 -13  855.51   62.99
   2   4  13  828.22   39.10
  -3  -4 -13   45.50    7.10
  -3  -4 -13   45.70    7.70
   3   4  13   46.80    7.70
  -4  -4 -13  306.57   19.00
  -4  -4 -13  292.17   16.90
   4   4  13  296.77   17.40
   4  -5 -13  127.49    9.40
  -4   5  13  136.79   12.10
   3  -5 -13  364.96   20.20
  -3   5  13  354.96   22.50
   2  -5 -13  843.02   44.00
   2  -5 -13  880.81   40.00
  -2   5  13  903.41   42.90
   1  -5 -13  534.95   27.30
   1  -5 -13  519.85   27.00
  -1   5  13  517.45   27.90
   0  -5 -13  721.13   33.40
   0  -5 -13  742.73   35.40
   0   5  13  772.32   36.30
  -1  -5 -13  111.89   10.10
  -1  -5 -13  112.09   10.70
   1   5  13  113.89   10.60
  -2  -5 -13 1949.51   82.49
  -2  -5 -13 2037.30   80.29
  -2  -5 -13 2081.79   96.99
   2   5  13 2034.40   82.19
  -3  -5 -13  202.08   19.10
  -3  -5 -13  199.98   14.30
   3   5  13  196.98   14.00
  -4  -5 -13   28.00    6.50
  -4  -5 -13   22.70    5.40
   4   5  13   39.00    6.30
   3  -6 -13  103.89    9.20
  -3   6  13  105.29   11.10
   2  -6 -13  381.46   25.90
  -2   6  13  382.16   23.40
   1  -6 -13  304.87   18.40
   1  -6 -13  318.97   19.20
   0  -6 -13  439.46   23.30
   0  -6 -13  459.85   24.80
   0   6  13  451.65   24.90
  -1  -6 -13  717.83   33.20
  -1  -6 -13  697.73   34.50
   1   6  13  719.93   34.60
  -2  -6 -13  196.98   13.90
  -2  -6 -13  188.48   34.00
  -2  -6 -13  196.68   15.00
   2   6  13  201.58   14.40
  -3  -6 -13  587.54   27.50
  -3  -6 -13  537.95   29.10
   3   6  13  575.44   27.70
  -4  -6 -13   36.40    7.60
   4   6  13   48.50    6.30
   3  -7 -13  107.89   10.90
  -3   7  13  130.89   11.40
   2  -7 -13  201.98   14.00
  -2   7  13  192.88   15.00
   1  -7 -13  319.47   19.00
   1  -7 -13  287.37   18.00
  -1   7  13  353.86   24.50
   0  -7 -13  442.56   22.80
   0  -7 -13  420.76   23.80
  -1  -7 -13  367.66   22.20
  -1  -7 -13  381.36   21.50
   1   7  13  379.96   21.30
  -2  -7 -13   67.29   10.10
  -2  -7 -13   75.79    8.80
   2   7  13   83.89    8.20
  -3  -7 -13  995.40   41.30
   3   7  13  927.41   39.80
   2  -8 -13   -1.00    3.00
  -2   8  13    3.40    3.60
   1  -8 -13   25.00    6.40
   1  -8 -13   26.60    6.40
  -1   8  13   23.90    6.10
   0  -8 -13  272.27   16.50
   0  -8 -13  277.07   17.50
   0   8  13  272.27   17.20
  -1  -8 -13  197.18   13.90
   1   8  13  205.38   13.70
  -2  -8 -13  733.53   33.20
   0  -9 -13  109.89   10.60
   0   9  13  106.99   16.60
   1   6 -14   46.30    9.60
   1   6 -14   55.19    9.10
  -1  -6  14   60.29    6.30
   0   6 -14   28.70    8.80
   0   6 -14   29.90    7.30
   0  -6  14   26.30    4.60
  -1   6 -14  131.59   12.50
  -1   6 -14  143.09   15.40
   1  -6  14  147.19   10.20
   2  -6  14   15.40    4.10
   2   5 -14   11.70    5.40
   2   5 -14    8.60    5.70
  -2  -5  14    7.80    3.10
   1   5 -14    9.40    4.50
   1   5 -14    6.40    6.20
  -1  -5  14   10.80    3.70
   0   5 -14  101.89   11.50
   0   5 -14   91.59   15.10
   0  -5  14   97.09    8.60
  -1   5 -14  145.79   13.30
  -1   5 -14  145.79   15.70
   1  -5  14  141.99   10.80
  -2   5 -14  106.99   11.60
  -2   5 -14   98.49   12.80
   2  -5  14  101.39    9.20
  -3   5 -14   30.10    6.70
  -3   5 -14   40.90    9.00
   3  -5  14   33.20    5.80
   3   4 -14  101.29   10.50
   2   4 -14  135.09   15.40
   2   4 -14  172.58   14.30
  -2  -4  14  174.78   10.90
   1   4 -14  281.87   25.20
   1   4 -14  293.87   23.10
   1   4 -14  307.87   19.90
  -1  -4  14  281.57   16.00
   0   4 -14   72.69   13.40
   0   4 -14   77.69   11.50
   0  -4  14   76.99    8.00
  -1   4 -14   81.09   11.70
  -1   4 -14   68.89   12.90
   1  -4  14   88.69    9.00
  -2   4 -14  213.08   18.90
  -2   4 -14  223.58   19.70
   2  -4  14  169.48   17.90
  -3   4 -14   99.79   15.80
  -3   4 -14   96.79    6.30
   3   3 -14   -0.50    3.40
  -3  -3  14    0.80    2.70
   2   3 -14   12.90   11.40
   2   3 -14   36.90    7.90
  -2  -3  14   32.70    7.30
   1   3 -14  408.86   28.70
   1   3 -14  431.26   24.60
   1   3 -14  419.26   28.70
  -1  -3  14  402.86   20.70
   0   3 -14   14.50    6.50
   0   3 -14   12.20    7.70
   0   3 -14   15.70    5.90
   0  -3  14   26.50    5.40
  -1   3 -14   30.60    4.20
  -1   3 -14   37.40    8.00
  -1   3 -14   44.00   11.40
   1  -3  14   48.70    7.40
  -2   3 -14   27.90    7.60
  -2   3 -14   31.40    5.00
  -2   3 -14   27.40    9.20
   2  -3  14   30.20    6.40
  -3   3 -14   20.90    4.50
  -3   3 -14   31.30    7.10
   3  -3  14   36.00    6.50
  -4   3 -14  169.38   13.20
  -4   3 -14  150.48   10.00
   4  -3  14  127.89   11.70
   3   2 -14  191.18   14.70
  -3  -2  14  184.48   12.20
   2   2 -14  115.99   11.90
   2   2 -14  111.49   14.90
  -2  -2  14  122.59    9.60
   1   2 -14  375.46   26.60
   1   2 -14  377.26   22.70
   1   2 -14  383.16   26.60
  -1  -2  14  400.06   20.00
   0   2 -14  934.71   48.50
   0   2 -14  990.90   44.40
   0   2 -14  873.81   38.00
   0   2 -14  955.00   49.10
   0  -2  14 1001.50   40.80
  -1   2 -14  550.84   33.30
  -1   2 -14  543.65   25.20
  -1   2 -14  552.54   29.20
   1  -2  14  555.84   26.60
  -2   2 -14 1122.59   49.70
  -2   2 -14 1098.79   52.69
  -2   2 -14 1093.19   46.40
   2  -2  14 1066.99   46.40
  -3   2 -14  784.82   38.40
  -3   2 -14  809.12   36.50
   3  -2  14  828.92   35.90
   3  -2  14  784.42   38.90
  -4   2 -14  334.27   18.40
  -4   2 -14  310.97   19.40
   4  -2  14  341.07   19.40
   4   1 -14  191.68   18.10
  -4  -1  14  170.18   11.30
   3   1 -14   27.50    6.70
   3   1 -14   21.60    7.80
  -3  -1  14   17.40    5.50
   2   1 -14  547.25   27.80
   2   1 -14  535.45   32.50
   2   1 -14  420.96   20.40
  -2  -1  14  555.84   24.80
   1   1 -14 1162.98   56.79
   1   1 -14 1210.78   47.50
   1   1 -14 1194.58   51.99
   1   1 -14 1170.98   57.49
  -1  -1  14 1187.68   48.90
   0   1 -14  604.24   30.90
   0   1 -14  649.24   36.50
   0   1 -14  594.64   34.10
   0   1 -14  642.84   28.10
   0  -1  14  635.34   28.80
  -1   1 -14  727.33   35.10
  -1   1 -14  718.03   39.50
  -1   1 -14  750.42   33.10
   1  -1  14  755.12   33.30
   1  -1  14  722.33   34.90
  -2   1 -14  387.26   25.30
  -2   1 -14  396.46   22.40
  -2   1 -14  396.26   21.20
   2  -1  14  375.86   21.70
   2  -1  14  387.06   20.60
  -3   1 -14   13.00    4.90
  -3   1 -14    9.80    4.80
   3  -1  14   12.10    5.10
   3  -1  14   16.90    5.30
  -4   1 -14   43.10    7.50
  -4   1 -14   39.90    7.40
   4  -1  14   49.00    7.40
   4   0 -14  346.37   24.90
  -4   0  14  257.47   15.20
   3   0 -14  552.64   26.00
   3   0 -14  693.03   39.50
  -3   0  14  686.53   29.80
   2   0 -14  921.01   40.90
   2   0 -14  878.51   37.20
   2   0 -14  858.11   46.20
  -2   0  14  902.71   38.50
   1   0 -14  299.27   16.10
   1   0 -14  280.37   17.70
   1   0 -14  299.27   21.50
  -1   0  14  297.07   16.50
   0   0 -14    1.50    3.40
   0   0 -14    0.40    2.20
   0   0 -14   -0.80    3.90
   0   0 -14    3.30    5.80
   0   0  14    5.10    3.40
   0   0  14   12.80    4.20
  -1   0 -14  600.84   28.60
  -1   0 -14  587.24   29.50
  -1   0 -14  595.74   31.40
  -1   0 -14  628.54   34.60
   1   0  14  574.14   29.60
   1   0  14  614.94   28.00
  -2   0 -14  326.37   19.20
  -2   0 -14  319.17   19.30
   2   0  14  335.07   19.70
   2   0  14  332.87   18.00
  -3   0 -14   28.90    6.70
  -3   0 -14   25.60    6.40
   3   0  14   29.20    6.30
   3   0  14   34.20    6.40
  -4   0 -14   36.60    7.40
  -4   0 -14   34.50    7.10
   4   0  14   40.20    6.90
   4  -1 -14   56.89    6.60
  -4   1  14   85.39    8.00
   3  -1 -14   34.70    5.60
  -3   1  14   31.20    5.90
   2  -1 -14  844.02   45.70
   2  -1 -14  908.51   38.60
  -2   1  14  949.21   38.90
  -2   1  14  856.61   42.70
   1  -1 -14   87.39   11.50
   1  -1 -14  105.99    8.70
   1  -1 -14   67.29    9.00
  -1   1  14   78.69    8.10
  -1   1  14   90.59    9.50
   0  -1 -14  716.03   33.20
   0  -1 -14  700.03   33.10
   0  -1 -14  701.33   36.40
   0   1  14  838.32   35.40
   0   1  14  697.93   34.60
  -1  -1 -14   15.00    4.70
  -1  -1 -14   14.70    4.60
   1   1  14    9.10    5.60
   1   1  14    9.10    3.90
  -2  -1 -14   69.19    8.20
  -2  -1 -14   66.89    8.50
   2   1  14   64.79    7.70
   2   1  14   60.39    8.80
  -3  -1 -14  861.91   38.40
  -3  -1 -14  795.52   38.80
   3   1  14  830.72   38.90
  -4  -1 -14   91.19    9.90
   4   1  14   89.09    9.00
   4  -2 -14  141.39    8.80
  -4   2  14  164.58   10.70
   3  -2 -14  461.55   22.50
  -3   2  14  441.26   27.00
  -3   2  14  454.95   27.60
   2  -2 -14   64.99    7.30
   2  -2 -14   72.89   12.90
  -2   2  14   65.89   10.70
  -2   2  14   71.29    8.00
   1  -2 -14  177.18   15.60
   1  -2 -14  192.38   12.90
  -1   2  14  167.98   11.70
  -1   2  14  166.38   15.50
   0  -2 -14  174.48   14.10
   0  -2 -14  176.28   12.60
   0   2  14  171.78   13.30
  -1  -2 -14  157.18   12.20
  -2  -2 -14   86.69    9.20
   2   2  14   73.89    8.20
   2   2  14   86.89    8.90
  -3  -2 -14  981.10   46.00
   3   2  14 1053.09   46.00
  -4  -2 -14  254.77   17.00
   4   2  14  257.17   16.20
   4  -3 -14  173.38   10.50
  -4   3  14  177.88   15.20
  -4   3  14  167.58   11.40
   3  -3 -14   43.70   14.60
   3  -3 -14   42.90    6.50
  -3   3  14   40.40    6.50
  -3   3  14   53.19    9.60
   2  -3 -14 1415.46   59.19
   2  -3 -14 1384.16   65.19
  -2   3  14 1442.26   63.19
  -2   3  14 1452.75   57.69
   1  -3 -14    1.10    3.10
   1  -3 -14   -5.90    4.10
  -1   3  14    6.20    4.40
  -1   3  14    2.70    3.60
   0  -3 -14  418.86   22.90
   0   3  14  436.06   24.00
  -1  -3 -14  108.59   10.10
   1   3  14  101.39    9.00
   1   3  14  120.69   10.70
  -2  -3 -14  785.72   36.40
   2   3  14  713.13   35.60
  -3  -3 -14  685.53   33.90
   3   3  14  670.93   33.00
  -4  -3 -14  188.08   14.20
   4   3  14  191.48   13.30
   3  -4 -14  140.29   10.50
  -3   4  14   99.29   10.40
  -3   4  14  109.59   11.90
   2  -4 -14  124.19   10.60
   2  -4 -14  118.49   15.30
  -2   4  14  129.89   12.90
  -2   4  14  108.89   10.00
   1  -4 -14  856.11   39.40
  -1   4  14  839.22   36.30
  -1   4  14  888.21   41.20
   0  -4 -14  562.24   28.80
   0   4  14  580.14   29.90
  -1  -4 -14  715.13   34.00
  -1  -4 -14  703.13   31.50
   1   4  14  672.83   34.00
  -2  -4 -14   90.19    9.70
  -2  -4 -14   83.99    9.80
   2   4  14   99.19   10.10
  -3  -4 -14   98.09   10.30
   3   4  14   87.79    9.20
  -4  -4 -14   21.60    5.80
   4   4  14   27.70    5.80
   3  -5 -14  116.39    9.90
  -3   5  14  140.09   12.30
   2  -5 -14  196.08   13.50
   2  -5 -14  153.58   17.80
  -2   5  14  203.08   15.80
   1  -5 -14   17.90    5.70
   0  -5 -14  132.99   11.90
   0  -5 -14  155.28   12.30
   0   5  14  148.19   12.70
  -1  -5 -14  206.88   14.80
  -1  -5 -14  198.68   13.50
   1   5  14  193.78   14.90
  -2  -5 -14  207.48   14.10
  -2  -5 -14  200.48   15.00
   2   5  14  202.78   14.70
  -3  -5 -14  545.25   28.50
   3   5  14  557.14   27.70
  -4  -5 -14   91.49   10.00
  -4  -5 -14   91.29    9.50
   4   5  14   90.49    7.90
   3  -6 -14  179.48   12.30
  -3   6  14  195.68   14.50
   2  -6 -14  261.87   16.50
  -2   6  14  263.27   18.50
   1  -6 -14   34.20    7.10
  -1   6  14   36.70    7.90
   0  -6 -14    2.00    4.90
   0  -6 -14    7.20    3.90
   0   6  14    8.50    3.90
  -1  -6 -14   97.19   10.20
  -1  -6 -14  100.69   10.20
   1   6  14   90.89    9.80
  -2  -6 -14  553.04   30.40
  -2  -6 -14  536.05   29.20
   2   6  14  626.04   36.00
  -3  -6 -14  249.78   15.20
  -3  -6 -14  247.78   16.50
   3   6  14  250.97   15.20
   2  -7 -14  111.99   10.00
  -2   7  14  116.69   11.30
   1  -7 -14   34.30    6.70
  -1   7  14   24.80    6.60
   0  -7 -14   16.00    5.20
   0  -7 -14   10.00    4.70
  -1  -7 -14  130.89   12.00
  -1  -7 -14  134.39   11.40
   1   7  14  144.69   11.60
  -2  -7 -14  242.98   16.90
  -2  -7 -14  277.27   16.30
   2   7  14  258.97   15.80
  -3  -7 -14   65.09    9.70
   3   7  14   49.00    6.90
   1  -8 -14  163.28   14.60
  -1   8  14  151.38   12.40
   0  -8 -14   18.40    5.60
   0  -8 -14   10.90    4.70
   0   8  14   14.90    5.00
  -1  -8 -14  129.89   11.90
  -1  -8 -14  135.49   11.00
   1   8  14  128.19   10.30
   2   8  14  168.58   10.50
   0   6 -15   -3.80    4.80
   0   6 -15    1.90    3.60
   0  -6  15   -0.60    2.70
  -1   6 -15   12.20    9.30
   1  -6  15    4.40    4.90
   1   5 -15   39.90    7.60
   1   5 -15   30.00    8.70
  -1  -5  15   34.70    4.90
   0   5 -15  256.97   17.10
   0   5 -15  208.58   19.00
   0  -5  15  232.78   13.50
  -1   5 -15   25.30    6.10
  -1   5 -15   15.30    7.10
   1  -5  15   20.90    4.80
  -2   5 -15   20.00    7.60
  -2   5 -15   16.90    5.50
   2  -5  15   23.70    5.00
   2   4 -15   39.60    7.50
  -2  -4  15   42.50    5.60
   1   4 -15  136.19   15.50
   1   4 -15  163.58   13.90
  -1  -4  15  155.88   10.40
   0   4 -15   73.29   14.70
   0   4 -15  105.19   11.50
   0  -4  15   72.79    7.90
  -1   4 -15  380.16   23.40
  -1   4 -15  417.56   28.00
   1  -4  15  395.86   20.60
  -2   4 -15  187.88   17.00
  -2   4 -15  189.48   14.90
   2  -4  15  190.88   12.90
  -3   4 -15   16.60    5.60
   3  -4  15   17.30    4.60
   3   3 -15   14.40    5.40
  -3  -3  15   17.60    3.90
   2   3 -15  281.77   18.80
  -2  -3  15  286.37   15.60
   1   3 -15  211.18   19.80
   1   3 -15  195.98   23.20
   1   3 -15  219.68   16.30
  -1  -3  15  208.78   13.40
   0   3 -15   30.80    9.20
   0   3 -15   26.90    8.20
   0   3 -15   28.10    6.90
   0  -3  15   29.20    5.60
  -1   3 -15 1039.60   48.90
  -1   3 -15 1047.30   53.19
   1  -3  15 1135.39   46.10
  -2   3 -15  105.39    7.30
  -2   3 -15   76.19   12.90
  -2   3 -15  100.89   13.10
  -3   3 -15   20.10    6.40
  -3   3 -15   19.90    3.90
   3  -3  15   27.80    5.60
   3   2 -15   99.69   10.70
  -3  -2  15  105.59    8.80
   2   2 -15   -8.80    5.20
   2   2 -15    8.90    5.30
   1   2 -15   40.50    7.90
   1   2 -15   59.59   11.80
   1   2 -15   68.39   12.20
  -1  -2  15   45.60    6.60
   0   2 -15 2015.50   86.49
   0   2 -15 1885.01   85.09
   0   2 -15 1931.21   80.39
   0  -2  15 1968.70   76.99
  -1   2 -15   12.00    3.50
  -1   2 -15   12.10    7.60
  -1   2 -15    6.10    5.00
   1  -2  15    6.70    4.20
  -2   2 -15   44.10    9.90
  -2   2 -15   58.79    6.60
  -2   2 -15   36.00    8.10
   2  -2  15   48.70    7.60
  -3   2 -15  247.08   15.00
  -3   2 -15  257.67   17.60
   3  -2  15  268.17   15.50
  -4   2 -15  451.45   21.50
   4  -2  15  447.16   23.10
   4  -2  15  411.86   23.00
   3   1 -15  383.56   22.00
  -3  -1  15  378.76   19.50
   2   1 -15  134.29   12.00
   2   1 -15  119.29   15.20
  -2  -1  15  132.09   10.40
   1   1 -15 1724.43   80.69
   1   1 -15 1843.02   75.49
   1   1 -15 1861.61   70.09
  -1  -1  15 1878.81   72.69
   0   1 -15  730.63   47.30
   0   1 -15  652.13   29.60
   0   1 -15  643.34   33.00
   0   1 -15  721.93   39.20
   0  -1  15  651.23   30.70
  -1   1 -15 2843.32  110.09
  -1   1 -15 2857.71  112.99
  -1   1 -15 2913.01  118.79
   1  -1  15 2885.11  110.39
  -2   1 -15  799.32   35.50
  -2   1 -15  786.32   37.50
   2  -1  15  747.43   37.00
   2  -1  15  768.22   34.70
  -3   1 -15    6.40    4.60
  -3   1 -15    4.00    4.00
   3  -1  15   -0.60    3.30
   3  -1  15   -2.30    3.10
  -4   1 -15  338.27   18.00
  -4   1 -15  288.57   17.80
   4  -1  15  300.67   17.80
   3   0 -15  192.58   14.60
  -3   0  15  212.08   13.40
   2   0 -15  503.75   26.90
   2   0 -15  534.65   23.80
   2   0 -15  525.55   32.80
  -2   0  15  559.74   25.90
   1   0 -15  730.23   34.90
   1   0 -15  706.93   39.50
   1   0 -15  754.32   32.60
  -1   0  15  756.02   33.20
   0   0 -15  114.99   11.20
   0   0 -15  107.49    9.10
   0   0  15  119.89    9.80
   0   0  15  115.89   16.00
  -1   0 -15   58.89    8.40
  -1   0 -15   60.79    7.40
   1   0  15   71.99    8.40
   1   0  15   67.69    9.50
  -2   0 -15 1377.76   59.99
  -2   0 -15 1420.06   59.79
   2   0  15 1428.06   60.99
   2   0  15 1495.65   58.59
  -3   0 -15  886.61   41.60
   3   0  15  962.60   46.30
  -4   0 -15  228.18   14.70
  -4   0 -15  188.38   13.70
   4   0  15  221.68   14.60
   3  -1 -15 1097.19   46.90
  -3   1  15 1287.77   49.70
   2  -1 -15  106.09   13.80
   2  -1 -15  130.19    9.30
   2  -1 -15  118.39   11.60
  -2   1  15  119.99   10.20
   1  -1 -15   99.09    9.90
   1  -1 -15  120.09    9.40
   1  -1 -15  127.19   20.80
  -1   1  15  120.09    9.80
  -1   1  15   97.39   11.30
   0  -1 -15  163.68   12.30
   0  -1 -15  152.78   14.10
   0  -1 -15  169.48   12.00
   0   1  15  161.58   13.30
   0   1  15  160.18   11.70
  -1  -1 -15   11.00    5.10
  -1  -1 -15   10.60    4.00
   1   1  15   22.30    5.20
   1   1  15   20.50    5.40
  -2  -1 -15  941.21   42.60
  -2  -1 -15  911.91   41.40
   2   1  15  941.21   43.30
   2   1  15  980.70   40.40
  -3  -1 -15   26.20    6.40
   3   1  15   29.50    6.30
  -4  -1 -15  275.47   17.30
   4   1  15  283.17   17.20
   3  -2 -15  166.28   10.80
  -3   2  15  161.68   15.50
  -3   2  15  166.68   11.70
   2  -2 -15 1076.59   45.30
   2  -2 -15  955.70   51.29
  -2   2  15 1099.29   50.49
  -2   2  15 1117.29   45.10
   1  -2 -15  222.48   14.50
  -1   2  15  225.98   16.50
  -1   2  15  228.18   14.10
   0  -2 -15  150.78   11.70
   0  -2 -15  139.99   13.60
   0   2  15  157.38   11.10
   0   2  15  153.78   12.90
  -1  -2 -15  570.34   28.60
   1   2  15  566.34   26.50
   1   2  15  571.44   29.60
  -2  -2 -15  141.89   12.10
   2   2  15  176.58   13.40
   2   2  15  123.59   10.30
  -3  -2 -15  856.11   38.90
   3   2  15  766.32   37.70
  -4  -2 -15   83.99    9.00
   4   2  15   85.39    8.40
   3  -3 -15  385.96   20.00
  -3   3  15  403.76   19.80
  -3   3  15  378.86   23.50
   2  -3 -15  610.44   36.90
   2  -3 -15  696.43   31.90
  -2   3  15  653.13   34.90
  -2   3  15  720.13   30.70
   1  -3 -15   18.60    6.40
   1  -3 -15   22.30    5.20
  -1   3  15   25.80    6.30
  -1   3  15   27.30    5.90
   0  -3 -15   86.29    8.90
   0   3  15   86.79    8.40
   0   3  15   92.39   10.10
  -1  -3 -15   23.60    6.00
   1   3  15   20.00    5.10
   1   3  15   27.30    6.40
  -2  -3 -15 1274.17   54.99
   2   3  15 1246.38   54.99
  -3  -3 -15   51.29    8.30
  -4  -3 -15   58.49    8.30
   4   3  15   57.89    7.10
   3  -4 -15   46.70    6.70
  -3   4  15   58.19    9.80
   2  -4 -15  336.17   19.40
  -2   4  15  374.86   28.40
   1  -4 -15  100.09    9.80
  -1   4  15  115.79   11.60
  -1   4  15   98.29   10.00
   0  -4 -15   23.20    5.50
   0   4  15   27.70    6.70
  -1  -4 -15  311.47   19.50
   1   4  15  320.97   20.10
  -2  -4 -15  232.68   16.50
   2   4  15  254.87   16.80
  -3  -4 -15   62.69    9.20
   3   4  15   69.09    8.40
  -4  -4 -15   56.49    8.30
   4   4  15   56.09    6.60
   3  -5 -15  445.76   22.00
  -3   5  15  432.66   24.80
   2  -5 -15   14.80    4.50
  -2   5  15    9.50    4.90
   1  -5 -15    1.40    3.80
   0  -5 -15   10.20    4.70
   0   5  15   12.90    5.10
  -1  -5 -15   10.50    4.70
  -1  -5 -15   13.50    7.70
   1   5  15   10.40    5.00
  -2  -5 -15   68.99    8.40
  -2  -5 -15   51.59    8.30
   2   5  15   80.49    9.00
  -3  -5 -15  249.97   16.50
   3   5  15  250.97   16.00
   2  -6 -15   31.00    5.70
  -2   6  15   48.10    8.60
   1  -6 -15  118.89   10.90
  -1   6  15  140.79   12.70
   0  -6 -15    9.60    4.30
   0   6  15    6.00    4.60
  -1  -6 -15  214.38   14.90
  -1  -6 -15  193.98   14.10
   1   6  15  189.68   15.20
  -2  -6 -15  192.38   14.10
  -2  -6 -15  198.98   13.50
   2   6  15  182.48   13.60
  -3  -6 -15   40.00    6.90
   2  -7 -15  172.18   14.30
  -2   7  15  218.48   14.70
   1  -7 -15   53.19    7.70
  -1   7  15   49.90    8.50
   0  -7 -15   42.60    7.20
  -1  -7 -15  193.68   13.20
  -1  -7 -15  180.18   13.60
   1   7  15  187.88   13.50
  -2  -7 -15  140.69   12.30
   2   7  15  158.68   11.30
   0  -8 -15  646.74   30.80
   0   8  15  649.54   30.70
  -1  -8 -15   81.19    9.20
   1   8  15   98.59    9.90
   0   5 -16   88.99   12.10
   0   5 -16  107.79   10.20
   0  -5  16   82.29    7.60
  -1   5 -16   19.90    7.60
  -1   5 -16   24.40    5.80
   1  -5  16   18.50    4.40
   2   4 -16  106.89   16.70
  -2  -4  16   94.59    7.50
   1   4 -16  185.18   14.40
   1   4 -16  177.88   17.00
  -1  -4  16  186.78   11.50
   0   4 -16  176.78   17.40
   0   4 -16  160.48   13.60
   0  -4  16  169.08   11.50
  -1   4 -16   58.89   11.10
  -1   4 -16   64.69    9.60
   1  -4  16   61.49    7.50
  -2   4 -16   59.79    8.70
  -2   4 -16   79.29   10.70
   2  -4  16   77.69    8.10
   2   3 -16   21.20    6.00
  -2  -3  16   18.60    4.30
   1   3 -16  619.94   36.00
   1   3 -16  652.33   32.30
  -1  -3  16  632.24   28.70
   0   3 -16  177.48   14.60
   0   3 -16  183.28   18.00
   0  -3  16  170.78   12.00
  -1   3 -16  222.38   19.80
  -1   3 -16  239.98   17.10
   1  -3  16  264.57   15.20
  -2   3 -16  150.38   13.10
  -2   3 -16  134.59   14.50
   2  -3  16  137.59   10.60
  -3   3 -16    0.40    2.40
  -3   3 -16   11.10    4.60
   3  -3  16    5.90    3.50
   3   2 -16    3.60    4.20
  -3  -2  16    3.50    3.60
   2   2 -16  665.73   32.80
  -2  -2  16  674.43   30.00
   1   2 -16  329.77   20.50
   1   2 -16  291.87   23.90
   0   2 -16  500.05   27.60
   0   2 -16  503.95   32.10
   0  -2  16  523.65   25.10
  -1   2 -16  138.29    9.30
  -1   2 -16  172.88   14.30
  -1   2 -16  187.98   18.10
   1  -2  16  164.48   12.00
  -2   2 -16  277.57   15.60
  -2   2 -16  325.07   19.90
   2  -2  16  317.67   17.40
  -3   2 -16   87.79    7.60
  -3   2 -16   91.89    9.90
   3  -2  16  101.39    8.80
  -3  -1  16  109.09    9.00
   2   1 -16   90.89   10.30
  -2  -1  16  101.89    9.00
   1   1 -16   92.79   10.80
   1   1 -16   78.69    5.90
   1   1 -16   87.59   13.80
  -1  -1  16  109.29    9.50
   0   1 -16   66.79   12.60
   0   1 -16   84.79    7.10
   0   1 -16   95.89   10.80
   0  -1  16   86.29    9.00
  -1   1 -16  402.56   23.30
  -1   1 -16  405.66   20.70
   1  -1  16  425.76   21.60
  -2   1 -16   63.69   11.10
  -2   1 -16   63.69    7.10
   2  -1  16   53.79    7.90
   2  -1  16   89.69   11.60
  -3   1 -16  286.57   18.50
  -3   1 -16  310.07   17.40
   3  -1  16  316.97   19.10
   3  -1  16  313.37   16.70
  -3   0  16  358.56   18.40
   2   0 -16  388.96   18.90
   2   0 -16  504.95   24.80
  -2   0  16  455.05   22.70
   1   0 -16  862.11   49.70
   1   0 -16  818.52   45.00
   1   0 -16  891.81   36.70
  -1   0  16  877.31   37.90
   0   0 -16  532.75   24.70
   0   0 -16  444.16   29.60
   0   0  16  538.45   25.20
  -1   0 -16  979.90   42.20
  -1   0 -16  953.50   43.60
   1   0  16  964.00   44.90
   1   0  16  972.40   41.70
  -2   0 -16  201.78   14.00
  -2   0 -16  187.38   14.50
   2   0  16  209.98   13.80
   2   0  16  214.58   15.50
  -3   0 -16   64.39    7.80
  -3   0 -16   45.70    7.80
   3   0  16   31.70    5.60
   3   0  16   46.80    7.50
  -4   0 -16  183.28   12.50
   4   0  16  182.08   13.30
   3  -1 -16   37.60    4.40
   2  -1 -16  531.85   26.80
   2  -1 -16  506.95   32.60
   2  -1 -16  544.35   24.40
   1  -1 -16  278.77   15.80
   1  -1 -16  234.28   20.70
   1  -1 -16  243.18   16.50
  -1   1  16  278.97   18.90
  -1   1  16  285.37   16.00
   0  -1 -16   34.80    8.70
   0  -1 -16   17.80    5.50
   0  -1 -16   36.10    6.50
   0   1  16   47.10    8.10
   0   1  16   36.90    6.30
  -1  -1 -16  754.82   34.60
  -1  -1 -16  760.42   35.20
   1   1  16  767.52   34.00
   1   1  16  753.32   36.90
  -2  -1 -16  107.59   10.00
   2   1  16   98.69   10.00
   2   1  16   83.99    8.70
  -3  -1 -16  991.30   44.90
   3   1  16 1037.20   45.70
  -4  -1 -16    7.80    4.20
   4   1  16    4.40    3.10
   3  -2 -16   91.69    7.20
  -3   2  16  109.69    9.20
   2  -2 -16  828.62   58.99
   2  -2 -16  798.92   35.90
  -2   2  16  829.02   36.50
  -2   2  16  836.42   41.20
   1  -2 -16   27.20    5.70
   1  -2 -16    9.30    6.90
  -1   2  16   24.90    5.20
  -1   2  16   22.60    6.50
   0  -2 -16  515.05   26.30
   0   2  16  562.44   28.90
   0   2  16  495.55   24.90
  -1  -2 -16  126.39   10.90
   1   2  16  110.49    9.60
   1   2  16  120.69   11.80
  -2  -2 -16 1370.66   59.19
   2   2  16 1421.76   60.29
  -3  -2 -16  203.78   14.60
   3   2  16  206.28   14.70
  -4  -2 -16   52.19    7.80
   4   2  16   65.79    7.50
   3  -3 -16  146.99   10.00
  -3   3  16  206.38   17.20
  -3   3  16  139.29   13.50
   2  -3 -16   78.49    8.00
  -2   3  16   80.09   11.90
  -2   3  16   69.79    8.00
   1  -3 -16   85.99    8.80
  -1   3  16   83.19    9.80
  -1   3  16   84.19    8.60
   0  -3 -16  278.77   17.10
   0   3  16  246.78   18.00
   0   3  16  277.47   15.40
  -1  -3 -16  138.29   11.70
   1   3  16  133.39   12.20
  -2  -3 -16  231.48   16.10
   2   3  16  220.38   16.10
  -3  -3 -16  428.96   23.60
   3   3  16  432.86   23.60
  -4  -3 -16  123.19   10.70
   4   3  16  137.99   10.30
   3  -4 -16  221.28   13.00
  -3   4  16  219.28   16.20
   2  -4 -16  603.64   27.60
  -2   4  16  551.84   30.30
  -2   4  16  511.55   28.40
  -1   4  16   59.59   10.70
   0  -4 -16    6.90    4.00
   0   4  16    5.60    4.50
  -1  -4 -16  111.29   10.40
   1   4  16  106.09   10.90
  -2  -4 -16  303.17   18.70
   2   4  16  276.87   22.10
  -3  -4 -16    6.90    3.90
   3   4  16    1.60    2.70
   2  -5 -16  131.89   10.70
  -2   5  16  138.19   13.00
   1  -5 -16  367.26   20.70
   0  -5 -16  219.18   16.90
   0   5  16  237.28   22.50
  -1  -5 -16  133.59   11.70
   1   5  16  136.09   15.20
  -2  -5 -16  110.39   10.60
   2   5  16  104.19   10.20
  -3  -5 -16  422.06   22.40
   3   5  16  399.76   21.70
   2  -6 -16  273.97   15.90
  -2   6  16  268.47   17.70
   1  -6 -16    5.50    3.50
  -1   6  16    5.10    3.60
   0  -6 -16   15.40    5.00
  -1  -6 -16   30.30    6.40
   1   6  16   41.40    7.00
  -2  -6 -16   30.70    6.10
   2   6  16   39.40    7.20
   1  -7 -16  684.93   33.40
  -1   7  16  590.34   30.80
   0  -7 -16   53.09    7.60
   0   7  16   39.40    7.20
  -1  -7 -16  342.27   23.50
  -2  -7 -16  168.68   13.40
   2   7  16  230.18   15.70
  -1  -4  17  104.39    9.70
   0   4 -17   50.29    8.30
   0   4 -17   45.90    9.60
   0  -4  17   45.40    6.30
  -1   4 -17  147.89   12.70
  -1   4 -17  150.38   14.70
   1  -4  17  157.08   10.70
   1   3 -17   83.29    9.60
  -1  -3  17   87.99    8.10
   0   3 -17  288.87   18.50
   0   3 -17  302.67   22.20
   0  -3  17  294.47   16.30
  -1   3 -17  382.66   25.50
  -1   3 -17  409.06   22.90
   1  -3  17  394.56   20.20
  -2   3 -17   59.99    8.30
   2  -3  17   57.29    7.40
   2   2 -17   36.00    7.20
  -2  -2  17   48.10    6.40
   1   2 -17  156.38   12.90
  -1  -2  17  168.18   11.60
   0   2 -17  368.16   21.50
   0  -2  17  389.46   19.90
  -1   2 -17  364.66   21.70
   1  -2  17  381.16   20.00
  -2   2 -17  145.89   12.20
  -2   2 -17  115.29    8.10
   2  -2  17  153.18   10.70
  -3   2 -17   -1.60    4.00
  -3   2 -17    0.10    2.40
   3  -2  17    1.80    3.50
   2   1 -17   70.39    9.20
  -2  -1  17   83.89    8.20
   1   1 -17   14.60    5.50
  -1  -1  17   15.50    4.80
   0   1 -17  144.29   12.40
   0   1 -17  134.99    8.60
  -1   1 -17   49.50    8.50
  -1   1 -17   50.29    5.50
   1  -1  17   38.80    7.00
  -2   1 -17    8.70    3.10
  -2   1 -17    5.90    5.10
   2  -1  17   -2.80    5.30
   2  -1  17   10.70    4.10
  -3   1 -17  169.28   15.70
  -3   1 -17  213.98   12.80
   3  -1  17  216.08   15.00
   3  -1  17  264.57   18.20
  -2   0  17  289.07   16.20
   1   0 -17   53.39    5.10
   1   0 -17   43.20    7.20
  -1   0  17   41.80    6.60
   0   0 -17  234.28   18.30
   0   0 -17  243.58   14.00
   0   0  17  245.78   15.00
  -1   0 -17  415.26   25.50
  -1   0 -17  503.95   24.00
   1   0  17  457.95   26.50
   1   0  17  528.65   24.10
  -2   0 -17  334.07   18.90
  -2   0 -17  341.87   20.00
   2   0  17  349.27   21.20
   2   0  17  347.77   18.20
  -3   0 -17  207.08   13.40
   3   0  17  205.48   14.40
   3   0  17  198.58   15.00
   2  -1 -17  232.38   12.70
  -2   1  17  260.07   14.90
   1  -1 -17  291.17   16.00
  -1   1  17  236.28   20.90
   0  -1 -17 1033.30   43.90
   0   1  17 1067.19   43.50
   0   1  17  947.51   47.00
  -1  -1 -17  159.78   12.00
   1   1  17  150.78   15.70
   1   1  17  152.38   11.60
  -2  -1 -17  452.25   23.80
   2   1  17  436.66   21.90
   2   1  17  485.55   25.60
  -3  -1 -17  232.08   14.80
   3   1  17  205.68   14.80
   3  -2 -17   73.19    5.30
   2  -2 -17  344.97   17.40
  -2   2  17  303.37   22.00
  -2   2  17  344.97   18.00
   1  -2 -17  353.96   20.30
  -1   2  17  373.66   20.10
  -1   2  17  376.66   22.90
   0  -2 -17   53.39    7.70
   0   2  17   57.39    7.80
   0   2  17   53.89    9.40
  -1  -2 -17  207.68   14.30
   1   2  17  196.98   16.10
  -2  -2 -17  801.82   36.90
   2   2  17  780.22   37.80
  -3  -2 -17   92.79    9.00
   3   2  17   89.89    9.20
   2  -3 -17    1.90    2.70
  -2   3  17    5.10    5.20
  -2   3  17    3.30    4.00
   1  -3 -17  265.77   16.30
  -1   3  17  282.07   15.50
   0  -3 -17   72.69    8.00
   0   3  17   56.19    7.70
  -1  -3 -17   22.60    6.20
   1   3  17   34.10   12.00
  -2  -3 -17  247.98   16.20
   2   3  17  236.68   16.60
  -3  -3 -17   45.80    7.20
   3   3  17   48.80    7.50
   2  -4 -17  278.47   15.80
  -2   4  17  273.77   18.70
   1  -4 -17  128.89   10.60
   0  -4 -17   14.60    5.20
   0   4  17   13.80    5.20
  -1  -4 -17  403.26   22.50
   1   4  17  419.46   23.90
  -2  -4 -17  398.96   22.00
   2   4  17  394.96   22.60
  -3  -4 -17  292.87   17.30
   3   4  17  291.67   17.30
   2  -5 -17   29.20    5.30
  -2   5  17   17.80    7.30
   1  -5 -17  422.06   22.10
  -1   5  17  418.86   24.60
   0  -5 -17  133.19   11.30
   0   5  17  146.09   12.50
  -1  -5 -17   61.49    7.60
   1   5  17   68.99    9.50
  -2  -5 -17  120.69   10.50
   2   5  17  117.29   10.70
   1  -6 -17   43.70    6.60
  -1   6  17   65.69    9.40
   0  -6 -17  320.67   18.60
  -1  -6 -17   33.10    6.00
   1   6  17   38.80    7.10
  -2  -6 -17  118.69   10.00
   2   6  17  134.49   10.70
   0   3 -18   16.20    8.60
   0  -3  18   11.10    3.80
  -1   3 -18  114.89   12.50
   1  -3  18  140.19   10.00
   1   2 -18   37.90    8.70
  -1  -2  18   39.00    5.80
   0   2 -18   30.40    6.90
   0  -2  18   41.30    6.50
  -1   2 -18  172.58   13.20
   1  -2  18  194.08   12.30
  -2   2 -18  138.19   14.80
   2  -2  18  156.08   10.60
   2   1 -18   37.40    6.90
  -2  -1  18   33.20    5.70
   1   1 -18  225.78   15.30
  -1  -1  18  235.78   14.10
   0   1 -18 1267.97   53.69
   0  -1  18 1267.97   51.99
  -1   1 -18   21.30    3.50
  -1   1 -18   30.50    6.80
   1  -1  18   23.10    5.10
   2  -1  18  105.79    9.00
  -2   0  18  431.16   21.10
   1   0 -18   91.39    6.00
   0   0 -18    3.30    5.20
   0   0 -18    0.50    2.00
   0   0  18    1.70    3.60
  -1   0 -18  353.86   18.50
   1   0  18  395.96   19.60
   1   0  18  347.37   21.80
  -2   0 -18  352.66   18.20
   2   0  18  342.37   17.60
   2   0  18  317.67   20.00
  -3   0 -18  155.18   10.90
   2  -1 -18   52.09    4.40
  -2   1  18   78.79    7.30
   1  -1 -18   32.60    5.00
  -1   1  18   48.40    6.60
   0  -1 -18  193.28   12.50
   0   1  18  213.78   16.20
   0   1  18  203.38   13.10
  -1  -1 -18  302.87   17.30
   1   1  18  314.37   16.90
   1   1  18  323.87   20.30
  -2  -1 -18  392.66   20.50
   2   1  18  389.86   22.30
  -3  -1 -18   35.60    6.00
   3   1  18   26.30    5.70
   2  -2 -18  143.99    9.10
  -2   2  18  162.18   14.10
   1  -2 -18  120.29    9.30
  -1   2  18  137.79   10.00
   0  -2 -18    8.00    4.10
   0   2  18   30.50    7.20
   0   2  18    6.70    4.00
  -1  -2 -18  315.67   18.10
   1   2  18  315.47   19.90
   1   2  18  315.37   16.80
  -2  -2 -18  139.19   11.20
   2   2  18  154.28   12.30
  -3  -2 -18  196.38   12.90
   3   2  18  199.88   13.90
   2  -3 -18   57.59    5.70
  -2   3  18   50.19    6.80
  -2   3  18   55.49    9.50
   1  -3 -18   28.30    5.40
  -1   3  18   16.30    5.60
   0  -3 -18   83.99    8.50
   0   3  18   96.09   10.30
  -1  -3 -18  152.68   11.60
   1   3  18  148.39   12.80
  -2  -3 -18  228.58   14.70
   2   3  18  211.38   15.00
   1  -4 -18   62.59    7.10
  -1   4  18   75.99    9.20
   0  -4 -18    6.50    3.90
   0   4  18    7.40    3.70
  -1  -4 -18   76.79    8.20
   1   4  18   81.79    9.30
  -2  -4 -18   80.59    8.40
   2   4  18   74.19    8.60
   1  -5 -18   93.19    8.50
  -1   5  18  104.49   10.60
   0  -5 -18   67.19    7.40
   0   5  18   75.19    8.80
  -1  -5 -18  248.88   15.60
   1   5  18  262.87   16.80
  -2  -5 -18   18.60    6.00
   2   5  18   27.40    5.30
  -1  -1  19  127.69   12.90
   0   1 -19  259.27   16.10
   0  -1  19  290.47   15.40
   1  -1  19  149.39   10.40
  -1   0  19  760.82   32.90
   0   0  19   93.69    8.50
  -1   0 -19  625.14   28.60
   1   0  19  737.23   30.20
  -2   0 -19  270.77   17.40
   2   0  19  299.77   15.30
   2   0  19  305.77   18.70
   1  -1 -19  270.17   16.00
  -1   1  19  382.86   17.50
   0  -1 -19   10.50    3.10
   0   1  19    9.60    4.10
  -1  -1 -19  295.07   16.00
   1   1  19  313.47   19.40
   1   1  19  291.17   15.80
  -2  -1 -19   88.89    7.80
   2   1  19   82.09    9.40
   1  -2 -19  132.29    8.70
  -1   2  19  119.19   10.80
  -1   2  19  128.59   13.80
   0  -2 -19  537.75   23.40
   0   2  19  412.46   22.10
  -1  -2 -19   79.99    7.90
   1   2  19   89.79    9.60
  -2  -2 -19  111.19    9.10
   2   2  19  119.89   10.70
   1  -3 -19   44.40    5.40
  -1   3  19   40.80    8.30
   0  -3 -19   23.00    4.80
   0   3  19   19.50    6.20
  -1  -3 -19  379.36   20.20
   1   3  19  391.26   22.10
  -2  -3 -19   38.50    6.10
   2   3  19   45.40    7.30
   0  -4 -19  232.88   14.10
  -1  -4 -19  150.28   11.00
   1   4  19  156.18   12.30
   0   0   0    0.00    0.00

_computing_structure_solution     'SHELXT 2014/5 (Sheldrick, 2014)'
;
_shelx_hkl_checksum              70366
_olex2_submission_special_instructions 'No special instructions were received'
loop_
_space_group_symop_operation_xyz
'x, y, z'
loop_
_atom_site_label
_atom_site_type_symbol
_atom_site_fract_x
_atom_site_fract_y
_atom_site_fract_z
_atom_site_U_iso_or_equiv
_atom_site_adp_type
_atom_site_occupancy
_atom_site_site_symmetry_order
_atom_site_calc_flag
_atom_site_refinement_flags_posn
_atom_site_refinement_flags_adp
_atom_site_refinement_flags_occupancy
_atom_site_disorder_assembly
_atom_site_disorder_group
O1 O -0.2106(3) 0.75433(17) 0.89468(9) 0.0342(4) Uani 1 1 d . . . . .
N1 N 0.1800(3) 0.9253(2) 0.79938(11) 0.0295(5) Uani 1 1 d . . . . .
C1 C -0.0762(5) 0.6488(3) 1.01351(16) 0.0470(7) Uani 1 1 d . . . . .
H1A H 0.079007 0.637742 0.991138 0.070 Uiso 1 1 calc R U . . .
H1B H -0.108088 0.575548 1.055073 0.070 Uiso 1 1 calc R U . . .
H1C H -0.088201 0.736936 1.032660 0.070 Uiso 1 1 calc R U . . .
O002 O 0.4183(3) 0.24604(17) 0.09031(9) 0.0341(4) Uani 1 1 d . . . . .
O2 O 0.0474(3) 0.62860(19) 0.83561(10) 0.0452(5) Uani 1 1 d . . . . .
C2 C -0.2453(5) 0.6432(3) 0.95527(15) 0.0389(6) Uani 1 1 d . . . . .
H2A H -0.229238 0.555480 0.934625 0.047 Uiso 1 1 calc R U . . .
H2B H -0.402519 0.648074 0.978684 0.047 Uiso 1 1 calc R U . . .
O3 O -0.2855(3) 0.5722(2) 0.59910(11) 0.0454(5) Uani 1 1 d . . . . .
C3 C -0.0574(4) 0.7334(3) 0.83866(14) 0.0307(6) Uani 1 1 d . . . . .
O004 O 0.2511(3) 0.4249(2) 0.38393(10) 0.0408(5) Uani 1 1 d . . . . .
O4 O 0.0763(3) 0.64023(18) 0.60236(10) 0.0350(4) Uani 1 1 d . . . . .
C4 C -0.0306(4) 0.8599(2) 0.78135(13) 0.0284(5) Uani 1 1 d . . . . .
H4 H -0.165158 0.921897 0.786345 0.034 Uiso 1 1 calc R U . . .
O005 O 0.6186(3) 0.36226(18) 0.37720(10) 0.0339(4) Uani 1 1 d . . . . .
C5 C -0.0041(4) 0.8205(2) 0.70104(13) 0.0256(5) Uani 1 1 d . . . . .
H5 H 0.142444 0.768307 0.697122 0.031 Uiso 1 1 calc R U . . .
O006 O 0.6756(3) 0.36704(19) 0.14169(11) 0.0422(5) Uani 1 1 d . . . . .
C6 C 0.1832(4) 1.0548(3) 0.79122(13) 0.0308(6) Uani 1 1 d . . . . .
H6 H 0.054921 1.103557 0.771443 0.037 Uiso 1 1 calc R U . . .
C7 C 0.3793(4) 1.1312(3) 0.81143(14) 0.0333(6) Uani 1 1 d . . . . .
N008 N 0.8006(3) 0.0740(2) 0.18187(11) 0.0285(5) Uani 1 1 d . . . . .
C8 C 0.5142(5) 1.0717(3) 0.86887(15) 0.0393(6) Uani 1 1 d . . . . .
H8 H 0.481353 0.981768 0.892419 0.047 Uiso 1 1 calc R U . . .
C9 C 0.6942(5) 1.1422(3) 0.89160(18) 0.0482(8) Uani 1 1 d . . . . .
H9 H 0.784767 1.101079 0.930624 0.058 Uiso 1 1 calc R U . . .
C11 C 0.6114(5) 1.3314(3) 0.80008(19) 0.0484(7) Uani 1 1 d . . . . .
H11 H 0.647983 1.420695 0.776317 0.058 Uiso 1 1 calc R U . . .
C10 C 0.7419(5) 1.2724(3) 0.85747(19) 0.0512(8) Uani 1 1 d . . . . .
H10 H 0.864557 1.321717 0.873343 0.061 Uiso 1 1 calc R U . . .
C12 C 0.4287(5) 1.2634(3) 0.77645(16) 0.0408(7) Uani 1 1 d . . . . .
C13 C 0.2916(6) 1.3312(3) 0.7135(2) 0.0608(9) Uani 1 1 d . . . . .
H13A H 0.374405 1.411402 0.687849 0.091 Uiso 1 1 calc R U . . .
H13B H 0.142160 1.359108 0.734191 0.091 Uiso 1 1 calc R U . . .
H13C H 0.269217 1.267052 0.677381 0.091 Uiso 1 1 calc R U . . .
C16 C -0.1386(5) 1.1553(3) 0.58175(16) 0.0394(6) Uani 1 1 d . . . . .
H16 H -0.258883 1.220563 0.578016 0.047 Uiso 1 1 calc R U . . .
C15 C -0.1598(4) 1.0409(3) 0.63476(15) 0.0328(6) Uani 1 1 d . . . . .
H15 H -0.296124 1.026946 0.666461 0.039 Uiso 1 1 calc R U . . .
C14 C 0.0166(4) 0.9460(2) 0.64210(13) 0.0271(5) Uani 1 1 d . . . . .
C19 C 0.2135(4) 0.9679(3) 0.59503(14) 0.0310(6) Uani 1 1 d . . . . .
H19 H 0.336405 0.904623 0.599909 0.037 Uiso 1 1 calc R U . . .
C18 C 0.2327(5) 1.0820(3) 0.54059(14) 0.0364(6) Uani 1 1 d . . . . .
H18 H 0.367300 1.095371 0.507976 0.044 Uiso 1 1 calc R U . . .
C17 C 0.0568(5) 1.1753(3) 0.53407(15) 0.0379(6) Uani 1 1 d . . . . .
H17 H 0.069595 1.253161 0.496982 0.045 Uiso 1 1 calc R U . . .
C20 C -0.1960(4) 0.7283(2) 0.68457(14) 0.0281(5) Uani 1 1 d . . . . .
C21 C -0.4044(4) 0.7208(3) 0.71817(16) 0.0361(6) Uani 1 1 d . . . . .
H21A H -0.514002 0.660340 0.703924 0.043 Uiso 1 1 calc R U . . .
H21B H -0.444343 0.775837 0.756532 0.043 Uiso 1 1 calc R U . . .
C22 C -0.1453(4) 0.6387(3) 0.62469(14) 0.0288(6) Uani 1 1 d . . . . .
C23 C 0.1427(5) 0.5553(3) 0.54516(16) 0.0431(7) Uani 1 1 d . . . . .
H23A H 0.077917 0.592454 0.497607 0.065 Uiso 1 1 calc R U . . .
H23B H 0.084895 0.462785 0.560894 0.065 Uiso 1 1 calc R U . . .
H23C H 0.310256 0.553110 0.538138 0.065 Uiso 1 1 calc R U . . .
C24 C 0.8931(5) -0.3270(3) 0.27604(18) 0.0516(8) Uani 1 1 d . . . . .
H24A H 0.752207 -0.355873 0.255802 0.077 Uiso 1 1 calc R U . . .
H24B H 0.855533 -0.260424 0.310751 0.077 Uiso 1 1 calc R U . . .
H24C H 0.967647 -0.406267 0.303056 0.077 Uiso 1 1 calc R U . . .
C25 C 1.0532(5) -0.2632(3) 0.21219(15) 0.0355(6) Uani 1 1 d . . . . .
C26 C 1.2482(5) -0.3334(3) 0.19034(16) 0.0411(7) Uani 1 1 d . . . . .
H26 H 1.277626 -0.421535 0.215811 0.049 Uiso 1 1 calc R U . . .
C27 C 1.3993(5) -0.2782(3) 0.13271(16) 0.0422(7) Uani 1 1 d . . . . .
H27 H 1.530192 -0.328611 0.118513 0.051 Uiso 1 1 calc R U . . .
C28 C 1.3611(5) -0.1499(3) 0.09553(16) 0.0417(7) Uani 1 1 d . . . . .
H28 H 1.465195 -0.111545 0.055754 0.050 Uiso 1 1 calc R U . . .
C29 C 1.1696(5) -0.0773(3) 0.11670(15) 0.0362(6) Uani 1 1 d . . . . .
H29 H 1.143959 0.011557 0.091565 0.043 Uiso 1 1 calc R U . . .
C30 C 1.0144(4) -0.1326(3) 0.17417(14) 0.0304(6) Uani 1 1 d . . . . .
C31 C 0.8068(4) -0.0553(3) 0.19317(14) 0.0298(6) Uani 1 1 d . . . . .
H31 H 0.673662 -0.103635 0.214504 0.036 Uiso 1 1 calc R U . . .
C32 C 0.5806(4) 0.1385(2) 0.19952(13) 0.0260(5) Uani 1 1 d . . . . .
H32 H 0.451084 0.075225 0.195289 0.031 Uiso 1 1 calc R U . . .
C33 C 0.5669(4) 0.2645(3) 0.14153(14) 0.0292(6) Uani 1 1 d . . . . .
C34 C 0.3868(5) 0.3601(3) 0.03203(15) 0.0416(7) Uani 1 1 d . . . . .
H34A H 0.529223 0.376963 -0.000607 0.050 Uiso 1 1 calc R U . . .
H34B H 0.348082 0.443532 0.055062 0.050 Uiso 1 1 calc R U . . .
C35 C 0.1959(6) 0.3240(3) -0.01306(17) 0.0485(7) Uani 1 1 d . . . . .
H35A H 0.174286 0.397399 -0.054329 0.073 Uiso 1 1 calc R U . . .
H35B H 0.054425 0.311551 0.019363 0.073 Uiso 1 1 calc R U . . .
H35C H 0.233506 0.239367 -0.033864 0.073 Uiso 1 1 calc R U . . .
C36 C 0.5765(4) 0.1792(2) 0.27974(13) 0.0257(5) Uani 1 1 d . . . . .
H36 H 0.720582 0.231023 0.283257 0.031 Uiso 1 1 calc R U . . .
C37 C 0.3766(4) 0.2721(2) 0.29676(14) 0.0264(5) Uani 1 1 d . . . . .
C38 C 0.1793(4) 0.2797(3) 0.26359(16) 0.0352(6) Uani 1 1 d . . . . .
H38A H 0.062379 0.339740 0.278365 0.042 Uiso 1 1 calc R U . . .
H38B H 0.154989 0.225153 0.225067 0.042 Uiso 1 1 calc R U . . .
C39 C 0.4028(4) 0.3605(2) 0.35663(14) 0.0270(5) Uani 1 1 d . . . . .
C40 C 0.6606(5) 0.4453(3) 0.43511(16) 0.0411(7) Uani 1 1 d . . . . .
H40A H 0.825322 0.446292 0.442570 0.062 Uiso 1 1 calc R U . . .
H40B H 0.577557 0.407668 0.482296 0.062 Uiso 1 1 calc R U . . .
H40C H 0.607671 0.538385 0.419828 0.062 Uiso 1 1 calc R U . . .
C41 C 0.5784(4) 0.0545(2) 0.33916(13) 0.0264(5) Uani 1 1 d . . . . .
C42 C 0.4002(4) -0.0397(3) 0.34748(14) 0.0313(6) Uani 1 1 d . . . . .
H42 H 0.275642 -0.025762 0.315691 0.038 Uiso 1 1 calc R U . . .
C43 C 0.4019(5) -0.1528(3) 0.40118(15) 0.0371(6) Uani 1 1 d . . . . .
H43 H 0.281074 -0.217349 0.405245 0.044 Uiso 1 1 calc R U . . .
C44 C 0.5792(5) -0.1727(3) 0.44914(15) 0.0370(6) Uani 1 1 d . . . . .
H44 H 0.578990 -0.249712 0.486814 0.044 Uiso 1 1 calc R U . . .
C45 C 0.7562(5) -0.0799(3) 0.44185(14) 0.0367(6) Uani 1 1 d . . . . .
H45 H 0.878622 -0.093251 0.474544 0.044 Uiso 1 1 calc R U . . .
C46 C 0.7567(4) 0.0328(3) 0.38714(14) 0.0302(6) Uani 1 1 d . . . . .
H46 H 0.879984 0.095818 0.382403 0.036 Uiso 1 1 calc R U . . .
loop_
_atom_site_aniso_label
_atom_site_aniso_U_11
_atom_site_aniso_U_22
_atom_site_aniso_U_33
_atom_site_aniso_U_23
_atom_site_aniso_U_13
_atom_site_aniso_U_12
O1 0.0400(10) 0.0316(10) 0.0290(9) 0.0000(8) 0.0062(7) 0.0011(8)
N1 0.0369(12) 0.0276(13) 0.0248(10) -0.0065(9) -0.0011(9) 0.0015(9)
C1 0.0599(19) 0.0448(18) 0.0344(15) 0.0009(13) -0.0007(13) 0.0001(14)
O002 0.0418(10) 0.0283(10) 0.0313(9) 0.0024(8) -0.0095(8) -0.0047(8)
O2 0.0623(12) 0.0320(11) 0.0381(11) 0.0016(9) 0.0072(9) 0.0143(10)
C2 0.0478(16) 0.0317(16) 0.0345(15) 0.0009(12) 0.0077(12) -0.0069(12)
O3 0.0356(10) 0.0495(13) 0.0544(12) -0.0165(10) -0.0077(9) -0.0099(9)
C3 0.0365(14) 0.0278(15) 0.0276(13) -0.0044(11) 0.0004(11) 0.0016(12)
O004 0.0327(10) 0.0457(12) 0.0457(11) -0.0143(9) 0.0009(8) 0.0104(9)
O4 0.0319(9) 0.0358(11) 0.0404(10) -0.0183(8) 0.0025(7) -0.0044(8)
C4 0.0312(13) 0.0254(13) 0.0278(13) -0.0026(11) 0.0022(10) 0.0039(10)
O005 0.0291(9) 0.0351(10) 0.0415(10) -0.0182(8) -0.0061(7) 0.0049(7)
C5 0.0247(12) 0.0247(13) 0.0278(13) -0.0047(10) -0.0027(10) 0.0026(10)
O006 0.0504(11) 0.0299(11) 0.0449(11) 0.0042(8) -0.0095(9) -0.0141(9)
C6 0.0383(14) 0.0289(16) 0.0254(13) -0.0048(11) -0.0009(11) 0.0023(11)
C7 0.0378(13) 0.0314(15) 0.0320(14) -0.0108(12) 0.0012(11) 0.0040(11)
N008 0.0338(11) 0.0275(12) 0.0249(10) -0.0064(9) -0.0014(8) -0.0001(9)
C8 0.0453(15) 0.0362(16) 0.0382(15) -0.0109(12) -0.0057(12) 0.0061(12)
C9 0.0474(17) 0.054(2) 0.0477(17) -0.0201(15) -0.0140(14) 0.0116(15)
C11 0.0474(17) 0.0387(17) 0.061(2) -0.0117(14) -0.0044(15) -0.0065(14)
C10 0.0428(16) 0.051(2) 0.066(2) -0.0268(17) -0.0111(15) -0.0010(14)
C12 0.0463(16) 0.0351(17) 0.0418(16) -0.0072(13) -0.0045(13) -0.0039(13)
C13 0.071(2) 0.045(2) 0.064(2) 0.0110(16) -0.0221(17) -0.0156(17)
C16 0.0459(16) 0.0299(15) 0.0423(16) -0.0020(12) -0.0089(13) 0.0062(12)
C15 0.0331(13) 0.0302(15) 0.0341(14) -0.0017(12) -0.0006(11) 0.0024(11)
C14 0.0288(13) 0.0276(14) 0.0261(13) -0.0067(10) -0.0035(10) -0.0032(10)
C19 0.0320(13) 0.0295(15) 0.0318(13) -0.0052(11) -0.0008(10) -0.0014(11)
C18 0.0412(15) 0.0376(16) 0.0296(14) -0.0047(12) 0.0056(11) -0.0083(13)
C17 0.0532(17) 0.0285(15) 0.0314(15) 0.0000(11) -0.0051(12) -0.0082(12)
C20 0.0267(12) 0.0234(13) 0.0331(13) 0.0008(11) -0.0034(10) 0.0030(10)
C21 0.0284(13) 0.0337(15) 0.0460(16) -0.0055(12) -0.0007(11) 0.0009(11)
C22 0.0278(12) 0.0261(14) 0.0321(13) 0.0001(11) -0.0049(10) -0.0034(11)
C23 0.0453(16) 0.0442(17) 0.0441(16) -0.0254(14) 0.0072(13) -0.0062(13)
C24 0.0552(18) 0.0429(19) 0.0507(19) 0.0096(15) 0.0095(14) 0.0116(15)
C25 0.0423(15) 0.0311(15) 0.0334(14) -0.0040(12) -0.0043(11) 0.0021(12)
C26 0.0448(16) 0.0358(16) 0.0432(16) -0.0078(13) -0.0032(13) 0.0075(13)
C27 0.0406(15) 0.0445(18) 0.0443(16) -0.0180(13) -0.0003(12) 0.0069(13)
C28 0.0390(15) 0.0465(18) 0.0405(16) -0.0121(13) 0.0042(12) -0.0053(13)
C29 0.0448(16) 0.0305(15) 0.0344(14) -0.0085(12) -0.0025(12) -0.0046(12)
C30 0.0356(13) 0.0287(14) 0.0293(13) -0.0109(11) -0.0049(11) -0.0016(11)
C31 0.0345(14) 0.0278(15) 0.0275(13) -0.0046(11) -0.0037(10) -0.0006(11)
C32 0.0285(12) 0.0225(13) 0.0267(12) -0.0016(10) -0.0037(10) -0.0034(10)
C33 0.0304(13) 0.0292(15) 0.0284(13) -0.0049(11) -0.0017(10) -0.0008(12)
C34 0.0541(17) 0.0350(16) 0.0336(15) 0.0061(12) -0.0095(12) 0.0016(13)
C35 0.0614(19) 0.0445(18) 0.0412(16) -0.0047(14) -0.0187(14) 0.0099(15)
C36 0.0216(12) 0.0252(13) 0.0304(13) -0.0046(10) -0.0017(9) -0.0026(10)
C37 0.0255(12) 0.0219(13) 0.0301(13) 0.0014(10) 0.0009(10) -0.0034(10)
C38 0.0269(13) 0.0328(15) 0.0466(16) -0.0075(12) -0.0036(11) -0.0022(11)
C39 0.0264(12) 0.0202(13) 0.0327(13) 0.0028(11) -0.0007(10) 0.0011(10)
C40 0.0423(15) 0.0422(17) 0.0438(16) -0.0214(13) -0.0089(12) 0.0063(13)
C41 0.0277(12) 0.0246(14) 0.0269(13) -0.0047(10) 0.0000(10) 0.0027(10)
C42 0.0307(13) 0.0337(15) 0.0290(13) -0.0021(11) -0.0027(10) -0.0020(11)
C43 0.0414(15) 0.0307(15) 0.0374(15) 0.0005(12) 0.0017(12) -0.0065(12)
C44 0.0519(16) 0.0297(15) 0.0278(14) 0.0005(11) 0.0003(12) 0.0074(12)
C45 0.0417(15) 0.0382(17) 0.0308(14) -0.0043(12) -0.0095(11) 0.0082(13)
C46 0.0307(13) 0.0314(14) 0.0296(13) -0.0074(11) -0.0034(10) 0.0005(11)
loop_
_atom_type_symbol
_atom_type_description
_atom_type_scat_dispersion_real
_atom_type_scat_dispersion_imag
_atom_type_scat_source
C C 0.0181 0.0091 'International Tables Vol C Tables 4.2.6.8 and 6.1.1.4'
H H 0.0000 0.0000 'International Tables Vol C Tables 4.2.6.8 and 6.1.1.4'
N N 0.0311 0.0180 'International Tables Vol C Tables 4.2.6.8 and 6.1.1.4'
O O 0.0492 0.0322 'International Tables Vol C Tables 4.2.6.8 and 6.1.1.4'
loop_
_geom_angle_atom_site_label_1
_geom_angle_atom_site_label_2
_geom_angle_atom_site_label_3
_geom_angle
_geom_angle_site_symmetry_1
_geom_angle_site_symmetry_3
_geom_angle_publ_flag
C3 O1 C2 116.45(19) . . ?
C6 N1 C4 117.2(2) . . ?
H1A C1 H1B 109.5 . . ?
H1A C1 H1C 109.5 . . ?
H1B C1 H1C 109.5 . . ?
C2 C1 H1A 109.5 . . ?
C2 C1 H1B 109.5 . . ?
C2 C1 H1C 109.5 . . ?
C33 O002 C34 116.3(2) . . ?
O1 C2 C1 111.0(2) . . ?
O1 C2 H2A 109.4 . . ?
O1 C2 H2B 109.4 . . ?
C1 C2 H2A 109.4 . . ?
C1 C2 H2B 109.4 . . ?
H2A C2 H2B 108.0 . . ?
O1 C3 C4 110.7(2) . . ?
O2 C3 O1 124.2(2) . . ?
O2 C3 C4 125.1(2) . . ?
C22 O4 C23 115.9(2) . . ?
N1 C4 C3 105.06(19) . . ?
N1 C4 H4 110.4 . . ?
N1 C4 C5 110.12(18) . . ?
C3 C4 H4 110.4 . . ?
C3 C4 C5 110.2(2) . . ?
C5 C4 H4 110.4 . . ?
C39 O005 C40 116.06(19) . . ?
C4 C5 H5 107.3 . . ?
C14 C5 C4 111.36(19) . . ?
C14 C5 H5 107.3 . . ?
C20 C5 C4 112.54(19) . . ?
C20 C5 H5 107.3 . . ?
C20 C5 C14 110.85(18) . . ?
N1 C6 H6 119.0 . . ?
N1 C6 C7 122.0(2) . . ?
C7 C6 H6 119.0 . . ?
C8 C7 C6 118.9(2) . . ?
C12 C7 C6 121.5(2) . . ?
C12 C7 C8 119.6(3) . . ?
C31 N008 C32 116.7(2) . . ?
C7 C8 H8 119.7 . . ?
C9 C8 C7 120.7(3) . . ?
C9 C8 H8 119.7 . . ?
C8 C9 H9 120.2 . . ?
C10 C9 C8 119.7(3) . . ?
C10 C9 H9 120.2 . . ?
C10 C11 H11 119.2 . . ?
C10 C11 C12 121.5(3) . . ?
C12 C11 H11 119.2 . . ?
C9 C10 C11 120.1(3) . . ?
C9 C10 H10 120.0 . . ?
C11 C10 H10 120.0 . . ?
C7 C12 C13 121.7(3) . . ?
C11 C12 C7 118.4(3) . . ?
C11 C12 C13 119.8(3) . . ?
C12 C13 H13A 109.5 . . ?
C12 C13 H13B 109.5 . . ?
C12 C13 H13C 109.5 . . ?
H13A C13 H13B 109.5 . . ?
H13A C13 H13C 109.5 . . ?
H13B C13 H13C 109.5 . . ?
C15 C16 H16 119.8 . . ?
C15 C16 C17 120.3(3) . . ?
C17 C16 H16 119.8 . . ?
C16 C15 H15 119.7 . . ?
C16 C15 C14 120.6(2) . . ?
C14 C15 H15 119.7 . . ?
C15 C14 C5 120.9(2) . . ?
C19 C14 C5 120.3(2) . . ?
C19 C14 C15 118.8(2) . . ?
C14 C19 H19 119.7 . . ?
C14 C19 C18 120.6(2) . . ?
C18 C19 H19 119.7 . . ?
C19 C18 H18 120.0 . . ?
C17 C18 C19 120.0(2) . . ?
C17 C18 H18 120.0 . . ?
C16 C17 H17 120.1 . . ?
C18 C17 C16 119.7(3) . . ?
C18 C17 H17 120.1 . . ?
C21 C20 C5 125.8(2) . . ?
C21 C20 C22 117.0(2) . . ?
C22 C20 C5 117.12(19) . . ?
C20 C21 H21A 120.0 . . ?
C20 C21 H21B 120.0 . . ?
H21A C21 H21B 120.0 . . ?
O3 C22 O4 123.2(2) . . ?
O3 C22 C20 125.0(2) . . ?
O4 C22 C20 111.8(2) . . ?
O4 C23 H23A 109.5 . . ?
O4 C23 H23B 109.5 . . ?
O4 C23 H23C 109.5 . . ?
H23A C23 H23B 109.5 . . ?
H23A C23 H23C 109.5 . . ?
H23B C23 H23C 109.5 . . ?
H24A C24 H24B 109.5 . . ?
H24A C24 H24C 109.5 . . ?
H24B C24 H24C 109.5 . . ?
C25 C24 H24A 109.5 . . ?
C25 C24 H24B 109.5 . . ?
C25 C24 H24C 109.5 . . ?
C26 C25 C24 119.8(2) . . ?
C26 C25 C30 118.2(2) . . ?
C30 C25 C24 122.0(2) . . ?
C25 C26 H26 119.2 . . ?
C27 C26 C25 121.5(3) . . ?
C27 C26 H26 119.2 . . ?
C26 C27 H27 119.9 . . ?
C26 C27 C28 120.2(3) . . ?
C28 C27 H27 119.9 . . ?
C27 C28 H28 120.3 . . ?
C27 C28 C29 119.4(3) . . ?
C29 C28 H28 120.3 . . ?
C28 C29 H29 119.5 . . ?
C28 C29 C30 120.9(3) . . ?
C30 C29 H29 119.5 . . ?
C25 C30 C31 120.6(2) . . ?
C29 C30 C25 119.7(2) . . ?
C29 C30 C31 119.7(2) . . ?
N008 C31 C30 122.0(2) . . ?
N008 C31 H31 119.0 . . ?
C30 C31 H31 119.0 . . ?
N008 C32 H32 110.4 . . ?
N008 C32 C33 105.65(18) . . ?
N008 C32 C36 109.71(18) . . ?
C33 C32 H32 110.4 . . ?
C33 C32 C36 110.31(19) . . ?
C36 C32 H32 110.4 . . ?
O002 C33 C32 110.8(2) . . ?
O006 C33 O002 124.5(2) . . ?
O006 C33 C32 124.7(2) . . ?
O002 C34 H34A 110.2 . . ?
O002 C34 H34B 110.2 . . ?
O002 C34 C35 107.3(2) . . ?
H34A C34 H34B 108.5 . . ?
C35 C34 H34A 110.2 . . ?
C35 C34 H34B 110.2 . . ?
C34 C35 H35A 109.5 . . ?
C34 C35 H35B 109.5 . . ?
C34 C35 H35C 109.5 . . ?
H35A C35 H35B 109.5 . . ?
H35A C35 H35C 109.5 . . ?
H35B C35 H35C 109.5 . . ?
C32 C36 H36 107.2 . . ?
C37 C36 C32 113.10(19) . . ?
C37 C36 H36 107.2 . . ?
C37 C36 C41 110.45(19) . . ?
C41 C36 C32 111.37(19) . . ?
C41 C36 H36 107.2 . . ?
C38 C37 C36 125.6(2) . . ?
C38 C37 C39 117.1(2) . . ?
C39 C37 C36 117.29(19) . . ?
C37 C38 H38A 120.0 . . ?
C37 C38 H38B 120.0 . . ?
H38A C38 H38B 120.0 . . ?
O004 C39 O005 122.7(2) . . ?
O004 C39 C37 125.3(2) . . ?
O005 C39 C37 112.07(19) . . ?
O005 C40 H40A 109.5 . . ?
O005 C40 H40B 109.5 . . ?
O005 C40 H40C 109.5 . . ?
H40A C40 H40B 109.5 . . ?
H40A C40 H40C 109.5 . . ?
H40B C40 H40C 109.5 . . ?
C42 C41 C36 120.9(2) . . ?
C46 C41 C36 120.7(2) . . ?
C46 C41 C42 118.4(2) . . ?
C41 C42 H42 119.5 . . ?
C43 C42 C41 121.0(2) . . ?
C43 C42 H42 119.5 . . ?
C42 C43 H43 119.9 . . ?
C42 C43 C44 120.2(2) . . ?
C44 C43 H43 119.9 . . ?
C43 C44 H44 120.3 . . ?
C45 C44 C43 119.5(2) . . ?
C45 C44 H44 120.3 . . ?
C44 C45 H45 119.8 . . ?
C44 C45 C46 120.4(2) . . ?
C46 C45 H45 119.8 . . ?
C41 C46 H46 119.7 . . ?
C45 C46 C41 120.6(2) . . ?
C45 C46 H46 119.7 . . ?
loop_
_geom_bond_atom_site_label_1
_geom_bond_atom_site_label_2
_geom_bond_distance
_geom_bond_site_symmetry_2
_geom_bond_publ_flag
O1 C2 1.448(3) . ?
O1 C3 1.340(3) . ?
N1 C4 1.469(3) . ?
N1 C6 1.272(3) . ?
C1 H1A 0.9800 . ?
C1 H1B 0.9800 . ?
C1 H1C 0.9800 . ?
C1 C2 1.488(4) . ?
O002 C33 1.333(3) . ?
O002 C34 1.454(3) . ?
O2 C3 1.206(3) . ?
C2 H2A 0.9900 . ?
C2 H2B 0.9900 . ?
O3 C22 1.206(3) . ?
C3 C4 1.516(4) . ?
O004 C39 1.205(3) . ?
O4 C22 1.331(3) . ?
O4 C23 1.443(3) . ?
C4 H4 1.0000 . ?
C4 C5 1.540(3) . ?
O005 C39 1.336(3) . ?
O005 C40 1.441(3) . ?
C5 H5 1.0000 . ?
C5 C14 1.523(3) . ?
C5 C20 1.520(3) . ?
O006 C33 1.204(3) . ?
C6 H6 0.9500 . ?
C6 C7 1.469(4) . ?
C7 C8 1.401(4) . ?
C7 C12 1.401(4) . ?
N008 C31 1.272(3) . ?
N008 C32 1.466(3) . ?
C8 H8 0.9500 . ?
C8 C9 1.380(4) . ?
C9 H9 0.9500 . ?
C9 C10 1.376(5) . ?
C11 H11 0.9500 . ?
C11 C10 1.383(5) . ?
C11 C12 1.385(4) . ?
C10 H10 0.9500 . ?
C12 C13 1.507(4) . ?
C13 H13A 0.9800 . ?
C13 H13B 0.9800 . ?
C13 H13C 0.9800 . ?
C16 H16 0.9500 . ?
C16 C15 1.382(4) . ?
C16 C17 1.383(4) . ?
C15 H15 0.9500 . ?
C15 C14 1.389(4) . ?
C14 C19 1.385(4) . ?
C19 H19 0.9500 . ?
C19 C18 1.393(4) . ?
C18 H18 0.9500 . ?
C18 C17 1.376(4) . ?
C17 H17 0.9500 . ?
C20 C21 1.323(4) . ?
C20 C22 1.496(4) . ?
C21 H21A 0.9500 . ?
C21 H21B 0.9500 . ?
C23 H23A 0.9800 . ?
C23 H23B 0.9800 . ?
C23 H23C 0.9800 . ?
C24 H24A 0.9800 . ?
C24 H24B 0.9800 . ?
C24 H24C 0.9800 . ?
C24 C25 1.508(4) . ?
C25 C26 1.392(4) . ?
C25 C30 1.404(4) . ?
C26 H26 0.9500 . ?
C26 C27 1.376(4) . ?
C27 H27 0.9500 . ?
C27 C28 1.379(4) . ?
C28 H28 0.9500 . ?
C28 C29 1.385(4) . ?
C29 H29 0.9500 . ?
C29 C30 1.389(4) . ?
C30 C31 1.475(4) . ?
C31 H31 0.9500 . ?
C32 H32 1.0000 . ?
C32 C33 1.521(3) . ?
C32 C36 1.544(3) . ?
C34 H34A 0.9900 . ?
C34 H34B 0.9900 . ?
C34 C35 1.490(4) . ?
C35 H35A 0.9800 . ?
C35 H35B 0.9800 . ?
C35 H35C 0.9800 . ?
C36 H36 1.0000 . ?
C36 C37 1.522(3) . ?
C36 C41 1.522(3) . ?
C37 C38 1.326(4) . ?
C37 C39 1.488(3) . ?
C38 H38A 0.9500 . ?
C38 H38B 0.9500 . ?
C40 H40A 0.9800 . ?
C40 H40B 0.9800 . ?
C40 H40C 0.9800 . ?
C41 C42 1.393(4) . ?
C41 C46 1.389(3) . ?
C42 H42 0.9500 . ?
C42 C43 1.379(4) . ?
C43 H43 0.9500 . ?
C43 C44 1.383(4) . ?
C44 H44 0.9500 . ?
C44 C45 1.380(4) . ?
C45 H45 0.9500 . ?
C45 C46 1.386(4) . ?
C46 H46 0.9500 . ?
loop_
_geom_torsion_atom_site_label_1
_geom_torsion_atom_site_label_2
_geom_torsion_atom_site_label_3
_geom_torsion_atom_site_label_4
_geom_torsion
_geom_torsion_site_symmetry_1
_geom_torsion_site_symmetry_2
_geom_torsion_site_symmetry_3
_geom_torsion_site_symmetry_4
_geom_torsion_publ_flag
O1 C3 C4 N1 100.1(2) . . . . ?
O1 C3 C4 C5 -141.3(2) . . . . ?
N1 C4 C5 C14 -66.1(2) . . . . ?
N1 C4 C5 C20 168.74(18) . . . . ?
N1 C6 C7 C8 -28.7(4) . . . . ?
N1 C6 C7 C12 153.6(2) . . . . ?
O2 C3 C4 N1 -78.5(3) . . . . ?
O2 C3 C4 C5 40.1(3) . . . . ?
C2 O1 C3 O2 1.3(4) . . . . ?
C2 O1 C3 C4 -177.3(2) . . . . ?
C3 O1 C2 C1 86.5(3) . . . . ?
C3 C4 C5 C14 178.45(19) . . . . ?
C3 C4 C5 C20 53.3(2) . . . . ?
C4 N1 C6 C7 176.6(2) . . . . ?
C4 C5 C14 C15 -61.6(3) . . . . ?
C4 C5 C14 C19 118.0(2) . . . . ?
C4 C5 C20 C21 24.9(3) . . . . ?
C4 C5 C20 C22 -155.4(2) . . . . ?
C5 C14 C19 C18 179.5(2) . . . . ?
C5 C20 C22 O3 -170.9(2) . . . . ?
C5 C20 C22 O4 9.2(3) . . . . ?
C6 N1 C4 C3 -143.7(2) . . . . ?
C6 N1 C4 C5 97.6(2) . . . . ?
C6 C7 C8 C9 -177.4(2) . . . . ?
C6 C7 C12 C11 177.8(3) . . . . ?
C6 C7 C12 C13 -3.4(4) . . . . ?
C7 C8 C9 C10 0.0(4) . . . . ?
N008 C32 C33 O002 106.1(2) . . . . ?
N008 C32 C33 O006 -73.8(3) . . . . ?
N008 C32 C36 C37 168.17(19) . . . . ?
N008 C32 C36 C41 -66.8(2) . . . . ?
C8 C7 C12 C11 0.1(4) . . . . ?
C8 C7 C12 C13 178.9(3) . . . . ?
C8 C9 C10 C11 -0.7(5) . . . . ?
C10 C11 C12 C7 -0.9(4) . . . . ?
C10 C11 C12 C13 -179.7(3) . . . . ?
C12 C7 C8 C9 0.4(4) . . . . ?
C12 C11 C10 C9 1.2(5) . . . . ?
C16 C15 C14 C5 179.2(2) . . . . ?
C16 C15 C14 C19 -0.3(4) . . . . ?
C15 C16 C17 C18 -1.3(4) . . . . ?
C15 C14 C19 C18 -0.9(4) . . . . ?
C14 C5 C20 C21 -100.5(3) . . . . ?
C14 C5 C20 C22 79.1(2) . . . . ?
C14 C19 C18 C17 1.1(4) . . . . ?
C19 C18 C17 C16 0.0(4) . . . . ?
C17 C16 C15 C14 1.5(4) . . . . ?
C20 C5 C14 C15 64.5(3) . . . . ?
C20 C5 C14 C19 -115.9(2) . . . . ?
C21 C20 C22 O3 8.7(4) . . . . ?
C21 C20 C22 O4 -171.2(2) . . . . ?
C23 O4 C22 O3 -0.6(4) . . . . ?
C23 O4 C22 C20 179.3(2) . . . . ?
C24 C25 C26 C27 -179.5(3) . . . . ?
C24 C25 C30 C29 178.7(3) . . . . ?
C24 C25 C30 C31 -3.1(4) . . . . ?
C25 C26 C27 C28 0.7(4) . . . . ?
C25 C30 C31 N008 154.3(2) . . . . ?
C26 C25 C30 C29 -0.2(4) . . . . ?
C26 C25 C30 C31 177.9(2) . . . . ?
C26 C27 C28 C29 0.0(4) . . . . ?
C27 C28 C29 C30 -0.8(4) . . . . ?
C28 C29 C30 C25 0.9(4) . . . . ?
C28 C29 C30 C31 -177.3(2) . . . . ?
C29 C30 C31 N008 -27.5(4) . . . . ?
C30 C25 C26 C27 -0.6(4) . . . . ?
C31 N008 C32 C33 -145.6(2) . . . . ?
C31 N008 C32 C36 95.5(2) . . . . ?
C32 N008 C31 C30 176.9(2) . . . . ?
C32 C36 C37 C38 24.9(3) . . . . ?
C32 C36 C37 C39 -156.2(2) . . . . ?
C32 C36 C41 C42 -62.0(3) . . . . ?
C32 C36 C41 C46 118.8(2) . . . . ?
C33 O002 C34 C35 -173.4(2) . . . . ?
C33 C32 C36 C37 52.2(3) . . . . ?
C33 C32 C36 C41 177.25(19) . . . . ?
C34 O002 C33 O006 -0.9(4) . . . . ?
C34 O002 C33 C32 179.2(2) . . . . ?
C36 C32 C33 O002 -135.4(2) . . . . ?
C36 C32 C33 O006 44.7(3) . . . . ?
C36 C37 C39 O004 -169.1(2) . . . . ?
C36 C37 C39 O005 11.5(3) . . . . ?
C36 C41 C42 C43 179.9(2) . . . . ?
C36 C41 C46 C45 179.1(2) . . . . ?
C37 C36 C41 C42 64.5(3) . . . . ?
C37 C36 C41 C46 -114.6(2) . . . . ?
C38 C37 C39 O004 10.0(4) . . . . ?
C38 C37 C39 O005 -169.5(2) . . . . ?
C40 O005 C39 O004 0.6(3) . . . . ?
C40 O005 C39 C37 -180.0(2) . . . . ?
C41 C36 C37 C38 -100.7(3) . . . . ?
C41 C36 C37 C39 78.3(3) . . . . ?
C41 C42 C43 C44 1.6(4) . . . . ?
C42 C41 C46 C45 0.0(3) . . . . ?
C42 C43 C44 C45 -1.2(4) . . . . ?
C43 C44 C45 C46 0.2(4) . . . . ?
C44 C45 C46 C41 0.4(4) . . . . ?
C46 C41 C42 C43 -1.0(4) . . . . ?
