#------------------------------------------------------------------------------
#$Date: 2023-11-05 00:55:43 +0200 (Sun, 05 Nov 2023) $
#$Revision: 287257 $
#$URL: file:///home/coder/svn-repositories/cod/cif/7/13/23/7132301.cif $
#------------------------------------------------------------------------------
#
# This file is available in the Crystallography Open Database (COD),
# http://www.crystallography.net/
#
# All data on this site have been placed in the public domain by the
# contributors.
#
data_7132301
loop_
_publ_author_name
'Nan, Jiang'
'Liang, Lu'
_publ_section_title
;
 Rhodium-catalyzed divergent dehydroxylation/alkenylation of
 hydroxyisoindolinones with vinylene carbonate
;
_journal_name_full               'Chemical Communications'
_journal_paper_doi               10.1039/D3CC03760F
_journal_year                    2023
_chemical_formula_sum            'C17 H13 N O2'
_chemical_formula_weight         263.28
_space_group_crystal_system      triclinic
_space_group_IT_number           2
_space_group_name_Hall           '-P 1'
_space_group_name_H-M_alt        'P -1'
_atom_sites_solution_hydrogens   geom
_audit_creation_method           SHELXL-2014/7
_audit_update_record
;
2023-08-02 deposited with the CCDC.	2023-11-02 downloaded from the CCDC.
;
_cell_angle_alpha                95.635(6)
_cell_angle_beta                 103.483(6)
_cell_angle_gamma                110.434(5)
_cell_formula_units_Z            2
_cell_length_a                   7.5438(13)
_cell_length_b                   9.2653(16)
_cell_length_c                   10.844(2)
_cell_measurement_reflns_used    8130
_cell_measurement_temperature    273(2)
_cell_measurement_theta_max      55.090
_cell_measurement_theta_min      5.523
_cell_volume                     677.1(2)
_computing_structure_refinement  'SHELXL-2014/7 (Sheldrick, 2014)'
_diffrn_ambient_temperature      273(2)
_diffrn_measured_fraction_theta_full 0.997
_diffrn_measured_fraction_theta_max 0.997
_diffrn_measurement_device_type  Bruker
_diffrn_radiation_type           MoK\a
_diffrn_radiation_wavelength     0.71073
_diffrn_reflns_av_R_equivalents  0.0675
_diffrn_reflns_av_unetI/netI     0.0410
_diffrn_reflns_Laue_measured_fraction_full 0.997
_diffrn_reflns_Laue_measured_fraction_max 0.997
_diffrn_reflns_limit_h_max       9
_diffrn_reflns_limit_h_min       -9
_diffrn_reflns_limit_k_max       11
_diffrn_reflns_limit_k_min       -11
_diffrn_reflns_limit_l_max       13
_diffrn_reflns_limit_l_min       -13
_diffrn_reflns_number            24188
_diffrn_reflns_point_group_measured_fraction_full 0.997
_diffrn_reflns_point_group_measured_fraction_max 0.997
_diffrn_reflns_theta_full        25.242
_diffrn_reflns_theta_max         25.999
_diffrn_reflns_theta_min         2.393
_exptl_absorpt_coefficient_mu    0.085
_exptl_crystal_colour            colorless
_exptl_crystal_density_diffrn    1.291
_exptl_crystal_description       block
_exptl_crystal_F_000             276
_exptl_crystal_size_max          0.2
_exptl_crystal_size_mid          0.15
_exptl_crystal_size_min          0.11
_refine_diff_density_max         0.509
_refine_diff_density_min         -0.475
_refine_diff_density_rms         0.114
_refine_ls_extinction_method     none
_refine_ls_goodness_of_fit_ref   1.112
_refine_ls_hydrogen_treatment    constr
_refine_ls_matrix_type           full
_refine_ls_number_parameters     182
_refine_ls_number_reflns         2654
_refine_ls_number_restraints     0
_refine_ls_restrained_S_all      1.112
_refine_ls_R_factor_all          0.1397
_refine_ls_R_factor_gt           0.1189
_refine_ls_shift/su_max          0.000
_refine_ls_shift/su_mean         0.000
_refine_ls_structure_factor_coef Fsqd
_refine_ls_weighting_details
'w=1/[\s^2^(Fo^2^)+(0.1561P)^2^+3.9949P] where P=(Fo^2^+2Fc^2^)/3'
_refine_ls_weighting_scheme      calc
_refine_ls_wR_factor_gt          0.3796
_refine_ls_wR_factor_ref         0.3955
_reflns_Friedel_coverage         0.000
_reflns_number_gt                2024
_reflns_number_total             2654
_reflns_threshold_expression     'I > 2\s(I)'
_cod_data_source_file            d3cc03760f2.cif
_cod_data_source_block           1
_cod_original_cell_volume        677.2(2)
_cod_database_code               7132301
_shelx_shelxl_version_number     2014/7
_shelx_space_group_comment
;
The symmetry employed for this shelxl refinement is uniquely defined
by the following loop, which should always be used as a source of
symmetry information in preference to the above space-group names.
They are only intended as comments.
;
_shelx_res_file
;

    1.res created by SHELXL-2014/7

TITL 1 in P-1
CELL 0.71073   7.5438   9.2653  10.8443  95.635 103.483 110.434
ZERR   2.00   0.0013   0.0016   0.0022   0.006   0.006   0.005
LATT 1
SFAC C  H  N  O
UNIT 34  26  2  4
OMIT 0 4 0
OMIT -1 4 1
OMIT 0 -2 6
OMIT -3 52
L.S. 10
ACTA
BOND
FMAP 2
PLAN 20
TEMP 0
WGHT    0.156100    3.994900
FVAR       0.35661
MOLE 1
O1    4    0.593029    0.242893    0.163094    11.00000    0.04789    0.04883 =
         0.05343    0.01756    0.00447    0.02194
C4    1    0.753248    0.085719    0.277823    11.00000    0.03936    0.02821 =
         0.03276    0.00461    0.00796    0.01678
N1    3    0.882157    0.372093    0.338276    11.00000    0.03826    0.02545 =
         0.03671    0.00643    0.01668    0.01063
AFIX  43
H1    2    0.840439    0.381025    0.404856    11.00000   -1.20000
AFIX   0
C16   1    1.046970    0.481254    0.324264    11.00000    0.03974    0.02686 =
         0.03756    0.00536    0.01409    0.01144
C9    1    0.782339    0.239091    0.231454    11.00000    0.03812    0.02998 =
         0.03319    0.00477    0.00808    0.01368
C2    1    0.563015   -0.117366    0.368148    11.00000    0.03874    0.03719 =
         0.05974    0.01379    0.01555    0.01543
AFIX  43
H2    2    0.451405   -0.163246    0.395155    11.00000   -1.20000
AFIX   0
C3    1    0.585692    0.016685    0.316068    11.00000    0.02869    0.03124 =
         0.04364    0.00640    0.00726    0.00852
C1    1    0.702212   -0.184514    0.380924    11.00000    0.04386    0.03042 =
         0.04533    0.00679    0.00846    0.01563
C6    1    0.868107   -0.113516    0.342133    11.00000    0.05868    0.04728 =
         0.04415    0.01330    0.01767    0.03314
AFIX  43
H6    2    0.963647   -0.156643    0.350720    11.00000   -1.20000
AFIX   0
C10   1    0.910548    0.279194    0.143350    11.00000    0.05961    0.03315 =
         0.03374    0.01173    0.01577    0.01980
C5    1    0.894797    0.020224    0.290867    11.00000    0.04153    0.03877 =
         0.04564    0.01076    0.01797    0.02055
AFIX  43
H5    2    1.007460    0.066550    0.265041    11.00000   -1.20000
AFIX   0
C7    1    0.437998    0.084606    0.295956    11.00000    0.03399    0.04215 =
         0.07169    0.01387    0.01683    0.01679
AFIX  43
H7    2    0.338353    0.055421    0.336347    11.00000   -1.20000
AFIX   0
C14   1    1.205714    0.488866    0.135178    11.00000    0.05504    0.05231 =
         0.05008    0.02144    0.02641    0.02518
AFIX  43
H14   2    1.308713    0.585652    0.171671    11.00000   -1.20000
AFIX   0
C15   1    1.066109    0.423231    0.197377    11.00000    0.04500    0.03430 =
         0.04213    0.01469    0.01979    0.02016
C8    1    0.445060    0.188278    0.220005    11.00000    0.04183    0.04018 =
         0.07014    0.01106    0.00732    0.02220
AFIX  43
H8    2    0.344400    0.226042    0.204432    11.00000   -1.20000
AFIX   0
C11   1    0.893328    0.197803    0.024415    11.00000    0.09109    0.04239 =
         0.03567    0.00584    0.02295    0.02732
AFIX  43
H11   2    0.790652    0.101002   -0.012661    11.00000   -1.20000
AFIX   0
C13   1    1.187332    0.405596    0.016242    11.00000    0.08886    0.08284 =
         0.05270    0.03564    0.04406    0.05190
AFIX  43
H13   2    1.280554    0.445835   -0.027441    11.00000   -1.20000
AFIX   0
C12   1    1.032576    0.264309   -0.037358    11.00000    0.11527    0.06694 =
         0.03900    0.01374    0.03373    0.04070
AFIX  43
H12   2    1.021508    0.211797   -0.118138    11.00000   -1.20000
AFIX   0
C17   1    0.674014   -0.331694    0.437291    11.00000    0.06431    0.04146 =
         0.08443    0.02832    0.02137    0.02182
AFIX 137
H17A  2    0.706594   -0.403627    0.385807    11.00000   -1.50000
H17B  2    0.538932   -0.380264    0.437434    11.00000   -1.50000
H17C  2    0.758667   -0.304352    0.524312    11.00000   -1.50000
AFIX   0
O2    4    1.156643    0.601974    0.401994    11.00000    0.05139    0.03466 =
         0.04824    0.00439    0.02275    0.00165
HKLF 4

REM  1 in P-1
REM R1 =  0.1189 for    2024 Fo > 4sig(Fo)  and  0.1397 for all    2654 data
REM    182 parameters refined using      0 restraints

END

WGHT      0.1403      4.3268

REM Highest difference peak  0.509,  deepest hole -0.475,  1-sigma level  0.114
Q1    1   0.5964 -0.3961  0.3189  11.00000  0.05    0.42
Q2    1   1.3327  0.5936  0.3250  11.00000  0.05    0.40
Q3    1   0.5527  0.1465  0.4340  11.00000  0.05    0.39
Q4    1   0.4113 -0.3677  0.4242  11.00000  0.05    0.38
Q5    1   0.2789  0.1091  0.4041  11.00000  0.05    0.38
Q6    1   0.1769 -0.0125  0.3376  11.00000  0.05    0.38
Q7    1   1.2486  0.3118 -0.0141  11.00000  0.05    0.38
Q8    1   0.7094  0.1242 -0.0272  11.00000  0.05    0.37
Q9    1   0.6202  0.1378 -0.0136  11.00000  0.05    0.35
Q10   1   1.0277  0.5991  0.1894  11.00000  0.05    0.35
Q11   1   1.1503  0.1259  0.2029  11.00000  0.05    0.35
Q12   1   0.7345 -0.1676  0.3140  11.00000  0.05    0.34
Q13   1   1.2802  0.6553  0.2094  11.00000  0.05    0.34
Q14   1   0.6488 -0.2881  0.2257  11.00000  0.05    0.33
Q15   1   0.4710 -0.2949  0.3000  11.00000  0.05    0.33
Q16   1   0.5966  0.3047  0.3540  11.00000  0.05    0.32
Q17   1   0.7442  0.4051  0.3333  11.00000  0.05    0.32
Q18   1   0.6146 -0.3015  0.5229  11.00000  0.05    0.32
Q19   1   0.5224  0.0394 -0.0932  11.00000  0.05    0.31
Q20   1   0.8904  0.3030 -0.1773  11.00000  0.05    0.31
;
_shelx_res_checksum              44917
_shelx_hkl_file
;
  -2   0   1    2.49    0.42
  -2   0   1    2.37    0.41
  -2   0   1    2.03    0.33
  -2   0   1    2.05    0.30
  -2   0   1    2.12    0.39
  -2   0   1    1.83    0.24
  -2   0   1    1.58    0.23
  -2   0   1    2.21    0.38
  -2   0   1    2.25    0.38
   2   0  -1    2.68    0.44
   2   0  -1    2.80    0.45
   2   0  -1    2.06    0.33
   2   0  -1    2.22    0.39
   2   0  -1    2.31    0.36
   2   0  -1    2.64    0.43
   2   0  -1    1.85    0.38
  -4   0   2    0.30    0.25
  -4   0   2   -0.06    0.16
  -4   0   2    0.02    0.28
  -4   0   2    0.02    0.22
  -4   0   2    0.50    0.27
  -4   0   2    0.85    0.39
  -4   0   2    0.13    0.19
  -4   0   2   -0.15    0.22
   4   0  -2    0.00    0.27
   4   0  -2    0.24    0.22
   4   0  -2    0.12    0.21
   4   0  -2    0.34    0.28
   4   0  -2    0.29    0.32
   4   0  -2    0.15    0.24
   4   0  -2    0.37    0.29
  -6   0   3    3.58    0.76
  -6   0   3    6.36    1.09
  -6   0   3    4.93    0.90
  -6   0   3    4.19    0.96
  -6   0   3    5.32    1.02
  -6   0   3    4.49    0.71
  -6   0   3    4.03    0.58
   6   0  -3    4.22    1.05
   6   0  -3    4.39    0.95
   6   0  -3    4.10    0.87
   6   0  -3    3.97    0.96
  -8   0   4    0.23    0.75
  -8   0   4   -0.62    0.56
  -8   0   4    0.10    0.51
  -8   0   4   -0.47    0.45
  -8   0   4    0.56    0.54
   8   0  -4    0.27    0.61
   8   0  -4   -0.20    0.69
   8   0  -4    0.25    0.48
   8   0  -4   -0.22    0.65
   7   1  -4    0.89    0.64
   7   1  -4   -0.49    0.43
   7   1  -4    0.06    0.69
   7   1  -4   -0.54    0.38
  -7  -1   4    0.11    0.49
  -7  -1   4    0.58    0.48
  -7  -1   4   -0.43    0.58
   5   1  -3    0.78    0.36
   5   1  -3    1.17    0.60
   5   1  -3    1.56    0.62
   5   1  -3    0.99    0.55
  -5  -1   3    0.98    0.38
  -5  -1   3    1.47    0.58
  -5  -1   3    1.20    0.59
  -5  -1   3    0.81    0.46
  -5  -1   3    1.20    0.39
  -5  -1   3    0.98    0.40
  -5  -1   3    1.07    0.40
   3   1  -2  104.89    5.41
   3   1  -2  107.23    5.38
   3   1  -2  109.45    5.64
   3   1  -2  104.23    5.64
   3   1  -2   99.99    5.55
   3   1  -2  102.31    5.62
   3   1  -2  104.51    5.63
  -3  -1   2  104.61    5.42
  -3  -1   2  108.57    5.63
  -3  -1   2  109.07    5.63
  -3  -1   2  103.12    5.49
  -3  -1   2  107.09    5.39
  -3  -1   2  104.05    5.55
  -3  -1   2  106.24    5.51
  -3  -1   2  106.05    5.62
  -3  -1   2  101.07    5.63
   1   1  -1   18.19    1.08
   1   1  -1   17.43    1.08
   1   1  -1   18.52    1.15
   1   1  -1   19.72    1.14
   1   1  -1   16.64    1.08
  -1  -1   1   18.78    1.08
  -1  -1   1   17.89    1.08
  -1  -1   1   15.82    1.12
  -1  -1   1   18.21    0.94
  -1  -1   1   17.89    0.93
  -1  -1   1   19.28    1.13
  -1  -1   1   16.47    1.06
  -1  -1   1   18.40    1.07
  -1  -1   1   18.88    1.10
  -3   1   1    0.31    0.24
  -3   1   1    0.25    0.18
  -3   1   1    0.42    0.11
  -3   1   1    0.38    0.28
  -3   1   1    0.08    0.18
  -3   1   1    0.07    0.25
  -3   1   1    0.52    0.25
  -3   1   1    0.30    0.10
  -3   1   1    0.33    0.23
   3  -1  -1    0.26    0.25
   3  -1  -1    0.09    0.21
   3  -1  -1    0.42    0.24
   3  -1  -1    0.10    0.15
   3  -1  -1    0.41    0.23
   3  -1  -1    0.32    0.22
   3  -1  -1    0.38    0.28
  -5   1   2    2.14    0.54
  -5   1   2    2.14    0.61
  -5   1   2    2.34    0.36
  -5   1   2    2.39    0.63
  -5   1   2    3.18    0.71
  -5   1   2    2.43    0.63
  -5   1   2    2.33    0.54
   5  -1  -2    2.74    0.62
   5  -1  -2    2.77    0.64
   5  -1  -2    2.58    0.57
   5  -1  -2    1.56    0.61
   5  -1  -2    3.16    0.81
  -7   1   3    1.30    0.82
  -7   1   3   -0.05    0.27
  -7   1   3   -0.51    0.44
  -7   1   3    0.97    0.68
  -7   1   3   -0.29    0.46
  -7   1   3   -0.34    0.43
  -7   1   3   -0.21    0.19
   7  -1  -3   -0.26    0.50
   7  -1  -3    0.02    0.41
   7  -1  -3    0.05    0.43
  -9   1   4   -0.53    0.77
  -9   1   4    0.18    0.78
  -9   1   4    1.55    1.14
  -9   1   4   -0.55    0.80
   9  -1  -4   -0.96    0.57
   9  -1  -4   -0.04    0.75
   8   2  -5   -0.49    0.69
   8   2  -5    0.06    0.62
   8   2  -5   -0.58    0.78
   8   2  -5   -0.51    0.88
  -8  -2   5   -0.32    0.68
  -8  -2   5    0.00    0.87
   6   2  -4   12.00    1.09
   6   2  -4   12.20    1.07
   6   2  -4   11.51    1.40
   6   2  -4   11.02    1.34
   6   2  -4   13.35    1.40
  -6  -2   4   12.94    1.29
  -6  -2   4   11.41    1.03
  -6  -2   4   13.24    1.44
  -6  -2   4   13.41    1.42
  -6  -2   4   12.95    1.01
   4   2  -3   14.15    1.30
   4   2  -3   12.85    0.93
   4   2  -3   15.27    1.29
   4   2  -3   12.46    0.90
   4   2  -3   14.79    1.37
   4   2  -3   13.69    1.27
  -4  -2   3   13.20    1.13
  -4  -2   3   15.76    1.44
  -4  -2   3   12.77    1.23
  -4  -2   3   13.64    1.20
  -4  -2   3   12.87    0.90
  -4  -2   3   14.17    1.20
  -4  -2   3   13.16    0.93
   2   2  -2    1.82    0.18
   2   2  -2    1.61    0.16
   2   2  -2    2.21    0.49
   2   2  -2    2.90    0.57
   2   2  -2    2.19    0.46
   2   2  -2    1.91    0.42
   2   2  -2    2.87    0.60
  -2  -2   2    2.33    0.49
  -2  -2   2    2.59    0.56
  -2  -2   2    1.85    0.17
  -2  -2   2    2.68    0.47
  -2  -2   2    2.64    0.58
  -2  -2   2    2.04    0.45
  -2  -2   2    2.39    0.47
  -2  -2   2    1.74    0.17
  -2  -2   2    1.89    0.47
   0   2  -1   74.45    3.93
   0   2  -1   72.76    3.90
   0   2  -1   77.33    3.78
   0   2  -1   74.07    3.92
   0   2  -1   76.38    3.80
   0   2  -1   75.81    3.91
   0   2  -1   75.01    3.76
   0   2  -1   74.38    3.76
   0  -2   1   75.57    3.78
   0  -2   1   76.48    3.70
   0  -2   1   71.41    3.90
   0  -2   1   74.54    3.93
   0  -2   1   74.39    3.92
   0  -2   1   81.51    4.01
   0  -2   1   73.08    3.70
   0  -2   1   76.43    3.90
   0  -2   1   74.25    3.79
   2  -2   0    0.59    0.22
   2  -2   0    0.45    0.26
  -4   2   1   22.76    1.56
  -4   2   1   22.94    1.44
  -4   2   1   20.84    1.54
  -4   2   1   24.27    1.55
  -4   2   1   22.46    1.56
  -4   2   1   22.23    1.60
  -4   2   1   23.50    1.67
   4  -2  -1   23.17    1.54
   4  -2  -1   23.77    1.53
   4  -2  -1   22.28    1.51
   4  -2  -1   24.89    1.65
   4  -2  -1   23.93    1.48
  -6   2   2   28.27    2.12
  -6   2   2   25.27    1.99
  -6   2   2   30.41    2.09
  -6   2   2   32.17    2.08
  -6   2   2   32.15    2.18
  -6   2   2   23.83    1.78
   6  -2  -2   25.21    1.91
   6  -2  -2   25.08    1.81
   6  -2  -2   23.71    1.99
  -8   2   3   -1.04    0.49
  -8   2   3   -0.49    1.32
  -8   2   3    0.35    0.59
  -8   2   3    1.05    0.74
  -8   2   3   -0.29    0.53
   8  -2  -3    0.70    0.71
   8  -2  -3   -0.85    0.50
   8  -2  -3    0.10    0.65
   7   3  -5   -0.21    0.39
   7   3  -5   -0.05    0.58
   7   3  -5   -1.24    0.60
   7   3  -5   -0.55    0.32
   7   3  -5   -0.51    0.76
  -7  -3   5   -0.41    0.61
  -7  -3   5    1.02    0.69
  -7  -3   5    1.84    0.95
   5   3  -4   13.33    1.32
   5   3  -4    9.76    0.72
   5   3  -4   11.60    1.24
   5   3  -4   10.01    0.71
   5   3  -4    9.61    0.73
   5   3  -4    9.40    1.17
  -5  -3   4   10.88    1.34
  -5  -3   4   10.15    1.16
   3   3  -3    9.92    1.03
   3   3  -3   10.83    1.20
   3   3  -3   10.99    1.04
   3   3  -3   11.65    1.12
  -3  -3   3   13.52    1.22
  -3  -3   3   10.86    1.00
  -3  -3   3   10.66    1.04
   1   3  -2    0.05    0.24
   1   3  -2    0.06    0.21
   1   3  -2    0.35    0.22
   1   3  -2    0.52    0.35
   1   3  -2    0.09    0.21
   1   3  -2    0.33    0.29
  -1  -3   2    0.25    0.07
  -1  -3   2    0.30    0.21
  -1  -3   2    0.25    0.07
  -1  -3   2    0.13    0.18
  -1  -3   2    0.17    0.06
  -1  -3   2    0.31    0.07
  -1  -3   2    0.09    0.20
  -1  -3   2    0.45    0.29
  -1  -3   2    0.43    0.32
  -1  -3   2    0.13    0.25
  -1  -3   2    0.35    0.21
  -1   3  -1  250.97   12.42
  -1   3  -1  247.16   12.37
  -1   3  -1  251.81   12.42
  -1   3  -1  240.43   12.41
  -1   3  -1  245.06   12.41
  -1   3  -1  250.10   12.38
   1  -3   1  254.48   12.43
   1  -3   1  253.17   12.41
   1  -3   1  242.71   12.40
   1  -3   1  242.66   12.38
   1  -3   1  256.90   12.41
   1  -3   1  250.58   12.38
   1  -3   1  244.09   12.36
   1  -3   1  246.54   12.40
   1  -3   1  244.39   12.41
  -3   3   0   61.60    3.46
  -3   3   0   62.58    3.49
  -3   3   0   59.95    3.65
  -3   3   0   74.87    3.55
  -3   3   0   58.42    3.69
  -3   3   0   75.00    3.68
   3  -3   0   63.85    3.33
   3  -3   0   65.68    3.36
   3  -3   0   67.34    3.52
   3  -3   0   68.02    3.52
   3  -3   0   61.86    3.35
   3  -3   0   66.84    3.74
   3  -3   0   71.50    3.66
   3  -3   0   63.30    3.34
  -5   3   1    4.86    0.65
  -5   3   1    3.91    0.86
  -5   3   1    4.17    0.68
  -5   3   1    5.43    0.99
  -5   3   1    5.68    0.86
  -5   3   1    4.57    0.82
   5  -3  -1    4.47    0.70
   5  -3  -1    5.15    0.88
   5  -3  -1    5.62    0.98
   5  -3  -1    3.85    0.55
  -7   3   2    6.69    1.19
  -7   3   2    6.30    1.24
  -7   3   2    7.15    1.25
  -7   3   2    8.10    1.43
  -7   3   2    7.99    1.25
  -7   3   2    8.09    1.31
   7  -3  -2    5.39    0.80
   7  -3  -2    8.52    1.46
   7  -3  -2    5.99    1.01
  -9   3   3   -0.87    0.85
  -9   3   3    1.17    0.88
  -9   3   3    1.10    0.83
  -9   3   3    0.36    0.69
   9  -3  -3   -0.26    0.84
   9  -3  -3   -0.35    0.75
   9  -3  -3   -0.29    0.56
   6   4  -5    0.70    0.63
   6   4  -5    1.48    0.82
   6   4  -5    0.46    0.54
  -6  -4   5    0.61    0.71
  -6  -4   5    1.21    0.78
  -6  -4   5    1.13    0.66
   4   4  -4    7.20    1.20
   4   4  -4    7.71    1.34
   4   4  -4    6.18    0.91
   4   4  -4    8.24    1.03
  -4  -4   4    8.43    1.32
  -4  -4   4    7.61    1.32
  -4  -4   4    7.40    0.89
   2   4  -3    0.67    0.45
   2   4  -3    0.77    0.43
  -2  -4   3    0.74    0.32
  -2  -4   3    0.66    0.54
   0   4  -2  109.95    5.67
   0   4  -2  114.68    6.01
   0   4  -2  120.57    6.02
   0   4  -2  114.82    5.93
   0   4  -2  117.04    5.84
   0   4  -2  105.04    5.90
   0   4  -2  110.59    5.66
   0  -4   2  110.32    5.90
   0  -4   2  112.81    5.99
   0  -4   2  107.62    5.90
   0  -4   2  106.62    5.65
   0  -4   2  109.22    5.94
   0  -4   2  113.19    5.97
   0  -4   2  108.14    5.69
   0  -4   2  111.32    5.94
   0  -4   2  116.43    5.81
  -2   4  -1   29.89    2.15
  -2   4  -1   33.73    1.99
  -2   4  -1   36.28    2.08
  -2   4  -1   30.90    2.08
  -2   4  -1   29.64    1.96
   2  -4   1   38.43    2.07
   2  -4   1   38.69    2.10
   2  -4   1   30.24    2.06
   2  -4   1   28.83    1.94
   2  -4   1   35.50    1.98
   2  -4   1   40.30    2.11
  -4   4   0    0.87    0.38
  -4   4   0    0.74    0.41
  -4   4   0    0.43    0.29
  -4   4   0    0.33    0.29
  -4   4   0    0.43    0.25
  -4   4   0    0.53    0.46
  -4   4   0    0.88    0.34
   4  -4   0    0.21    0.27
   4  -4   0    0.40    0.31
   4  -4   0    0.26    0.26
   4  -4   0    0.35    0.47
   4  -4   0    0.52    0.17
   4  -4   0    0.63    0.16
   4  -4   0    0.59    0.17
   4  -4   0    0.49    0.15
  -6   4   1    1.56    0.54
  -6   4   1    1.78    0.62
  -6   4   1    0.47    0.58
  -6   4   1    0.74    0.47
   6  -4  -1    0.64    0.64
   6  -4  -1    1.04    0.38
   6  -4  -1    1.00    0.42
   6  -4  -1    1.16    0.52
  -8   4   2    0.97    0.75
  -8   4   2    1.38    0.93
  -8   4   2    1.45    0.78
  -8   4   2    1.83    0.90
  -8   4   2    1.31    1.04
   8  -4  -2    1.12    0.62
   8  -4  -2    0.68    0.61
   8  -4  -2    0.33    0.48
   5   5  -5    0.38    0.58
   5   5  -5   -0.26    0.59
   5   5  -5    0.90    0.72
   5   5  -5    0.32    0.58
  -5  -5   5    0.67    0.76
  -5  -5   5    0.28    0.52
  -5  -5   5   -0.43    0.48
   3   5  -4   58.87    3.71
   3   5  -4   66.40    3.83
   3   5  -4   64.60    3.92
   3   5  -4   65.07    3.96
  -3  -5   4   59.51    3.91
  -3  -5   4   49.56    3.68
  -3  -5   4   68.65    4.08
   1   5  -3    2.15    0.48
   1   5  -3    1.91    0.46
   1   5  -3    2.24    0.63
  -1  -5   3    1.91    0.19
  -1  -5   3    1.84    0.31
  -1  -5   3    2.06    0.62
  -1  -5   3    2.90    0.71
  -1  -5   3    1.41    0.18
  -1  -5   3    1.44    0.19
  -1  -5   3    1.40    0.18
  -1   5  -2   42.15    2.52
  -1   5  -2   42.70    2.44
  -1   5  -2   41.02    2.13
  -1   5  -2   41.52    2.38
  -1   5  -2   41.98    2.13
  -1   5  -2   44.00    2.59
  -1   5  -2   40.43    2.54
   1  -5   2   40.62    2.55
   1  -5   2   39.86    2.51
   1  -5   2   41.24    2.51
   1  -5   2   40.23    2.40
   1  -5   2   38.02    2.50
   1  -5   2   41.95    2.55
   1  -5   2   40.08    2.48
   1  -5   2   39.60    2.35
   1  -5   2   41.08    2.54
  -3   5  -1   -0.09    0.18
  -3   5  -1   -0.01    0.26
  -3   5  -1    0.03    0.21
  -3   5  -1   -0.16    0.11
  -3   5  -1    0.03    0.12
   3  -5   1   -0.28    0.16
   3  -5   1   -0.29    0.16
   3  -5   1   -0.15    0.23
   3  -5   1    0.17    0.27
   3  -5   1   -0.01    0.21
   3  -5   1    0.22    0.27
   3  -5   1    0.03    0.24
  -5   5   0    6.71    0.73
  -5   5   0    7.27    0.75
  -5   5   0    8.21    0.81
  -5   5   0    6.55    0.89
   5  -5   0    7.40    0.77
   5  -5   0    8.35    1.27
   5  -5   0    6.60    0.47
   5  -5   0    6.02    0.71
   5  -5   0    6.80    0.47
  -7   5   1    3.77    0.90
  -7   5   1    3.32    0.94
  -7   5   1    3.21    0.78
  -7   5   1    1.75    0.74
  -7   5   1    2.43    0.80
   7  -5  -1    3.68    0.75
   7  -5  -1    1.20    0.69
   7  -5  -1    3.50    0.96
  -9   5   2    1.38    0.85
  -9   5   2    2.27    1.16
  -9   5   2    2.31    0.98
   9  -5  -2    0.85    1.07
   9  -5  -2    1.90    0.75
   9  -5  -2    0.48    0.73
   6   6  -6    2.47    1.00
   6   6  -6    2.67    1.20
   6   6  -6    1.18    0.83
  -6  -6   6    2.50    1.27
  -6  -6   6    2.13    1.34
   4   6  -5    1.67    0.74
   4   6  -5    2.78    0.97
   4   6  -5    1.87    0.80
   4   6  -5    1.56    0.73
  -4  -6   5    2.05    0.70
  -4  -6   5    1.89    0.75
  -4  -6   5    1.96    1.02
   2   6  -4   18.46    1.69
   2   6  -4   17.46    1.45
   2   6  -4   15.37    1.35
   2   6  -4   16.40    1.52
  -2  -6   4   16.75    1.60
  -2  -6   4   18.31    1.72
  -2  -6   4   16.10    1.20
   0   6  -3    3.53    0.47
   0   6  -3    3.48    0.41
   0   6  -3    2.85    0.73
   0   6  -3    2.51    0.55
   0  -6   3    5.05    0.91
   0  -6   3    4.49    0.49
   0  -6   3    3.98    0.45
   0  -6   3    3.76    0.45
  -2   6  -2    0.30    0.39
  -2   6  -2    0.20    0.09
  -2   6  -2   -0.04    0.25
  -2   6  -2    0.06    0.28
  -2   6  -2    0.17    0.08
  -2   6  -2   -0.06    0.36
   2  -6   2    0.39    0.28
   2  -6   2   -0.15    0.33
   2  -6   2    0.56    0.35
   2  -6   2    0.28    0.32
   2  -6   2    0.18    0.29
   2  -6   2    0.10    0.31
   2  -6   2    0.26    0.37
   2  -6   2    0.00    0.31
  -4   6  -1    2.39    0.66
  -4   6  -1    2.59    0.43
  -4   6  -1    2.56    0.42
  -4   6  -1    2.75    0.72
  -4   6  -1    2.36    0.51
   4  -6   1    2.74    0.62
   4  -6   1    1.95    0.50
   4  -6   1    2.14    0.62
   4  -6   1    2.17    0.54
   4  -6   1    1.83    0.51
   4  -6   1    2.25    0.56
  -6   6   0    3.85    0.89
  -6   6   0    6.29    1.02
  -6   6   0    6.04    1.20
  -6   6   0    4.79    0.81
  -6   6   0    4.47    1.12
  -6   6   0    4.33    0.82
   6  -6   0    5.91    1.17
   6  -6   0    4.10    0.80
   6  -6   0    3.78    0.73
   6  -6   0    3.57    0.88
  -8   6   1   -0.61    0.57
  -8   6   1    0.33    0.58
  -8   6   1   -0.32    0.56
  -8   6   1   -0.83    0.69
   8  -6  -1    0.72    0.59
   8  -6  -1    0.62    0.69
   5   7  -6    0.77    0.68
   5   7  -6    0.94    0.85
   5   7  -6    1.44    0.95
  -5  -7   6    0.71    1.38
  -5  -7   6    1.77    1.18
   3   7  -5    2.16    0.93
   3   7  -5    2.31    0.78
   3   7  -5    2.11    0.89
   3   7  -5    4.13    1.04
  -3  -7   5    4.68    1.17
  -3  -7   5    2.54    0.88
   1   7  -4    5.99    1.21
   1   7  -4    4.81    0.66
   1   7  -4    4.09    0.78
   1   7  -4    4.25    0.99
  -1  -7   4    3.83    0.98
  -1  -7   4    4.03    0.28
  -1  -7   4    3.33    0.88
  -1  -7   4    3.94    0.28
  -1   7  -3   12.47    1.25
  -1   7  -3   12.82    0.90
  -1   7  -3   11.40    1.20
  -1   7  -3   12.82    1.09
  -1   7  -3   12.27    1.02
  -1   7  -3   12.64    0.90
   1  -7   3   13.09    1.31
   1  -7   3   11.89    1.19
   1  -7   3   12.16    1.07
   1  -7   3   14.15    1.36
   1  -7   3   12.01    1.06
   1  -7   3   13.19    1.04
  -3   7  -2    0.03    0.13
  -3   7  -2    0.43    0.16
  -3   7  -2    0.79    0.48
  -3   7  -2    1.41    0.63
  -3   7  -2    0.22    0.31
   3  -7   2    1.10    0.53
   3  -7   2    0.06    0.41
   3  -7   2   -0.28    0.29
   3  -7   2    0.09    0.30
  -5   7  -1    3.86    0.80
  -5   7  -1    4.61    0.70
  -5   7  -1    4.18    0.65
  -5   7  -1    4.10    1.06
  -5   7  -1    3.29    0.95
   5  -7   1    4.09    0.87
   5  -7   1    4.07    0.66
   5  -7   1    2.75    0.65
   5  -7   1    3.15    0.78
   5  -7   1    3.60    0.66
  -7   7   0    0.76    0.71
  -7   7   0    0.12    0.39
  -7   7   0   -0.17    0.47
  -7   7   0    0.13    0.48
  -7   7   0    0.90    0.80
   7  -7   0    0.65    0.48
   7  -7   0    0.61    0.57
  -9   7   1    0.60    0.97
  -9   7   1   -0.89    1.15
  -9   7   1   -0.74    0.89
  -9   7   1    0.32    0.84
   9  -7  -1    0.13    0.64
   9  -7  -1   -0.41    0.98
   9  -7  -1   -0.27    0.67
   4   8  -6    1.62    0.96
   4   8  -6    1.40    0.98
  -4  -8   6    1.09    0.78
   2   8  -5    1.59    0.85
   2   8  -5    1.39    0.65
   2   8  -5    1.27    0.81
   2   8  -5    2.36    0.74
  -2  -8   5    1.97    0.87
  -2  -8   5    1.89    0.87
   0   8  -4   11.77    1.26
   0   8  -4   11.52    1.03
   0   8  -4   14.20    1.09
   0   8  -4   13.71    1.51
   0  -8   4   11.07    0.95
   0  -8   4   11.74    0.94
   0  -8   4   11.56    0.99
   0  -8   4   12.57    1.45
   0  -8   4   13.06    1.47
   0  -8   4   10.33    0.92
  -2   8  -3    5.43    0.53
  -2   8  -3    5.88    0.56
  -2   8  -3    6.33    0.83
  -2   8  -3    6.77    0.83
  -2   8  -3    7.78    1.31
  -2   8  -3    6.32    0.88
   2  -8   3    7.78    1.26
   2  -8   3    6.84    0.95
   2  -8   3    8.32    1.37
   2  -8   3   10.97    1.60
   2  -8   3    7.76    1.22
  -4   8  -2   14.08    1.40
  -4   8  -2   12.87    1.19
  -4   8  -2   12.69    0.88
  -4   8  -2   12.64    0.86
  -4   8  -2   13.16    1.45
   4  -8   2   12.29    1.34
   4  -8   2   11.67    1.25
   4  -8   2   11.19    1.23
   4  -8   2   13.97    1.23
  -6   8  -1    2.51    0.63
  -6   8  -1    0.60    0.44
  -6   8  -1    0.90    0.42
  -6   8  -1    0.08    0.52
  -6   8  -1    0.65    0.58
   6  -8   1    0.81    0.44
   6  -8   1    0.37    0.53
   6  -8   1    1.11    0.40
   6  -8   1    0.90    0.49
  -8   8   0    1.56    0.79
  -8   8   0    1.83    0.72
  -8   8   0    1.08    1.26
  -8   8   0    1.73    0.79
  -8   8   0    2.92    1.06
   8  -8   0    2.29    1.07
   8  -8   0    1.22    0.88
   8  -8   0    2.00    0.73
   3   9  -6   24.26    3.72
   1   9  -5    0.33    0.61
   1   9  -5   -0.76    0.40
   1   9  -5    0.29    0.57
   1   9  -5    0.00    0.39
  -1  -9   5   -0.59    0.65
  -1  -9   5    0.48    0.84
  -1   9  -4    6.55    1.23
  -1   9  -4    5.24    1.22
  -1   9  -4    4.82    0.64
  -1   9  -4    5.19    0.77
   1  -9   4    5.29    1.44
   1  -9   4    5.43    0.95
   1  -9   4    5.80    0.80
   1  -9   4    5.55    1.29
   1  -9   4    5.47    0.90
   1  -9   4    6.87    1.43
  -3   9  -3    0.01    0.17
  -3   9  -3    0.11    0.52
  -3   9  -3   -0.30    0.44
  -3   9  -3    0.47    0.22
  -3   9  -3    0.01    0.43
   3  -9   3   -0.60    0.60
   3  -9   3   -1.18    0.45
   3  -9   3   -0.59    0.43
   3  -9   3    0.00    0.44
   3  -9   3   -0.35    0.38
  -5   9  -2    4.35    1.11
  -5   9  -2    4.16    0.49
  -5   9  -2    3.89    0.54
   5  -9   2    6.18    2.06
   5  -9   2    5.41    1.04
   5  -9   2    3.12    0.83
   5  -9   2    5.14    1.03
  -7   9  -1    0.36    0.66
  -7   9  -1   -0.59    0.83
  -7   9  -1    0.22    0.44
  -7   9  -1   -0.55    0.60
   7  -9   1    0.42    0.33
   7  -9   1    0.80    0.88
   7  -9   1   -0.34    0.67
   7  -9   1    0.19    0.61
   0  10  -5    1.98    0.91
   0  10  -5    1.95    0.86
   0  10  -5    1.66    0.70
   0  10  -5    4.13    0.85
   0 -10   5    2.91    0.98
   0 -10   5    0.38    0.77
   0 -10   5    2.94    1.10
  -2  10  -4    0.12    0.50
  -2  10  -4    0.88    0.77
  -2  10  -4    1.37    0.77
  -2  10  -4    0.55    0.35
   2 -10   4    0.90    0.77
   2 -10   4    1.41    0.67
   2 -10   4    1.47    0.73
   2 -10   4    2.71    1.08
   2 -10   4    0.27    0.68
   2 -10   4    1.98    0.86
  -4  10  -3    3.74    1.06
  -4  10  -3    4.41    0.48
  -4  10  -3    4.77    0.48
  -4  10  -3    5.94    1.20
   4 -10   3    6.23    1.34
   4 -10   3    5.83    1.17
   4 -10   3    5.71    1.21
   4 -10   3    6.54    1.21
   4 -10   3    7.58    1.34
  -6  10  -2    0.44    0.79
  -6  10  -2    0.24    0.45
  -6  10  -2   -0.05    0.32
  -6  10  -2    0.18    0.80
   6 -10   2   -0.15    0.59
   6 -10   2   -0.60    0.47
   6 -10   2    3.28    1.11
   6 -10   2    0.71    0.82
  -1  11  -5    4.38    0.82
  -1  11  -5    2.12    0.96
  -1  11  -5    1.29    0.86
  -1  11  -5    3.35    1.22
   1 -11   5    5.29    1.29
   1 -11   5    3.69    1.23
   1 -11   5    1.97    1.22
  -3  11  -4    1.60    0.68
  -3  11  -4    2.35    0.47
  -3  11  -4    1.77    0.78
   3 -11   4    3.36    0.99
   3 -11   4    1.21    0.79
   3 -11   4    3.43    1.09
   3 -11   4    2.15    0.98
   3 -11   4    1.71    1.06
   3 -11   4    2.66    0.91
  -5  11  -3    0.35    0.31
  -5  11  -3    0.63    0.64
  -5  11  -3   -0.53    0.62
   5 -11   3    0.34    0.68
   5 -11   3    0.27    0.81
   5 -11   3    0.97    0.80
   5 -11   3    0.97    0.86
   5 -11   3   -0.34    0.73
   6 -11   3    0.16    0.70
   6 -11   3    2.74    0.98
   6 -11   3    1.12    0.77
   6 -11   3    0.57    0.86
   6 -11   3    1.01    1.05
   6 -11   3    0.78    0.75
  -6  11  -3    0.94    0.85
  -6  11  -3    0.95    0.91
  -6  11  -3    0.70    0.56
   4 -11   4    0.84    0.72
   4 -11   4   -0.05    0.78
   4 -11   4    0.28    0.72
   4 -11   4    0.35    0.70
   4 -11   4   -0.68    0.67
   4 -11   4   -0.13    0.81
  -4  11  -4    1.04    0.63
  -4  11  -4    0.24    0.19
  -4  11  -4   -0.02    0.21
   2 -11   5   -0.39    0.68
   2 -11   5    0.53    0.87
   2 -11   5    1.17    1.10
   2 -11   5    0.11    0.80
   2 -11   5    1.55    0.86
   2 -11   5   -0.75    0.82
  -2  11  -5    0.86    0.96
  -2  11  -5    0.88    0.46
  -2  11  -5   -0.02    0.66
  -2  11  -5    1.61    0.50
   7 -10   2    0.74    0.96
   7 -10   2    4.22    1.39
   7 -10   2    1.19    0.70
   7 -10   2   -0.10    0.68
  -7  10  -2    0.28    0.55
  -7  10  -2   -0.57    0.53
  -7  10  -2   -0.69    0.67
  -7  10  -2   -0.09    0.74
  -7  10  -2   -0.09    0.63
   5 -10   3    0.77    0.71
   5 -10   3    1.27    0.76
   5 -10   3    0.07    0.53
   5 -10   3    0.93    0.67
  -5  10  -3    0.91    0.79
  -5  10  -3    0.19    0.23
  -5  10  -3   -0.08    0.56
  -5  10  -3    0.71    0.27
   3 -10   4    1.69    0.89
   3 -10   4    0.43    0.72
   3 -10   4    1.59    0.83
   3 -10   4    1.69    0.78
   3 -10   4   -0.56    0.64
   3 -10   4    0.79    0.73
  -3  10  -4    1.20    0.31
  -3  10  -4    1.45    0.31
  -3  10  -4    1.71    0.69
  -3  10  -4    1.53    0.74
   1 -10   5    6.14    1.00
   1 -10   5    4.73    1.38
   1 -10   5    7.23    1.58
   1 -10   5    3.76    1.21
  -1  10  -5    5.44    0.86
  -1  10  -5    5.49    0.87
  -1  10  -5    7.45    1.57
  -1  10  -5    3.26    1.12
  -1 -10   6    0.84    1.10
  -1 -10   6   -0.57    0.71
  -1 -10   6    2.38    1.15
   1  10  -6    0.90    0.92
   1  10  -6    1.93    1.03
   8  -9   1    0.91    0.66
   8  -9   1    0.17    0.99
  -8   9  -1    0.37    0.72
  -8   9  -1    0.14    0.72
   6  -9   2    0.31    0.52
   6  -9   2    1.02    0.75
   6  -9   2   -0.52    0.46
   6  -9   2    0.86    0.70
  -6   9  -2    0.53    0.75
  -6   9  -2    0.02    0.36
  -6   9  -2    0.17    0.44
  -6   9  -2    0.50    0.77
  -6   9  -2   -0.05    0.33
   4  -9   3    0.55    0.59
   4  -9   3    0.97    0.64
   4  -9   3   -0.31    0.45
   4  -9   3    0.39    0.65
   4  -9   3   -0.04    0.52
  -4   9  -3    0.20    0.17
  -4   9  -3    0.77    0.61
  -4   9  -3    0.10    0.16
  -4   9  -3    0.20    0.55
   2  -9   4    1.54    0.65
   2  -9   4   -0.20    0.53
   2  -9   4    0.79    0.58
   2  -9   4    0.84    0.63
   2  -9   4    0.16    0.45
   2  -9   4    0.99    0.70
  -2   9  -4    0.68    0.27
  -2   9  -4    0.53    0.48
  -2   9  -4    2.51    0.66
  -2   9  -4   -0.64    0.38
   0  -9   5    6.17    0.70
   0  -9   5    9.76    1.33
   0  -9   5    4.24    0.67
   0  -9   5   10.00    1.79
   0  -9   5    7.12    1.48
   0   9  -5    6.39    1.40
   0   9  -5    5.56    0.95
   0   9  -5    6.58    1.40
   0   9  -5    5.37    0.77
  -2  -9   6    3.33    1.15
  -2  -9   6    3.88    1.37
   2   9  -6    4.08    1.26
   2   9  -6    5.17    1.26
   2   9  -6    4.16    0.95
   9  -8   0    1.48    1.17
  -9   8   0    1.24    0.84
   7  -8   1    0.89    0.58
   7  -8   1    0.67    0.79
   7  -8   1    0.85    0.59
  -7   8  -1    0.38    0.56
  -7   8  -1    1.79    0.86
  -7   8  -1    0.37    0.43
  -7   8  -1    4.03    1.24
  -7   8  -1    1.20    0.66
   5  -8   2   -0.12    0.51
   5  -8   2   -0.60    0.36
   5  -8   2   -0.01    0.54
   5  -8   2   -0.29    0.35
   5  -8   2   -0.62    0.35
   5  -8   2    0.17    0.46
  -5   8  -2    0.56    0.57
  -5   8  -2    0.16    0.59
  -5   8  -2    0.41    0.26
  -5   8  -2    0.05    0.41
  -5   8  -2   -0.15    0.20
   3  -8   3    8.57    1.00
   3  -8   3    8.47    1.07
   3  -8   3    8.82    1.05
  -3   8  -3    7.06    0.94
  -3   8  -3    5.67    0.39
  -3   8  -3    5.09    0.39
  -3   8  -3    6.50    1.17
  -3   8  -3    5.58    1.09
   1  -8   4    5.93    0.99
   1  -8   4    5.58    1.18
   1  -8   4    5.26    0.87
   1  -8   4    7.52    1.36
   1  -8   4    4.79    0.68
   1  -8   4    4.81    1.11
  -1   8  -4    5.59    1.19
  -1   8  -4    4.97    0.67
  -1   8  -4    3.91    0.52
  -1   8  -4    4.53    0.55
  -1   8  -4    4.17    0.94
  -1  -8   5    2.50    0.83
   1   8  -5    2.55    0.67
   1   8  -5    2.21    0.86
   1   8  -5    3.56    0.88
   1   8  -5    1.98    0.57
  -3  -8   6   -0.23    0.76
  -3  -8   6    0.48    0.86
   3   8  -6    0.22    0.62
   3   8  -6    0.13    0.55
   3   8  -6   -0.12    0.52
   8  -7   0    0.30    0.85
  -8   7   0    2.49    1.10
   6  -7   1    0.84    0.51
   6  -7   1   -0.11    0.22
   6  -7   1    0.12    0.23
   6  -7   1    0.04    0.57
  -6   7  -1   -0.07    0.30
  -6   7  -1    0.59    0.50
  -6   7  -1    0.60    0.60
  -6   7  -1   -0.31    0.37
  -6   7  -1    0.35    0.29
   4  -7   2   38.89    2.51
   4  -7   2   38.94    2.77
   4  -7   2   41.19    2.68
   4  -7   2   38.64    2.54
   4  -7   2   35.83    2.59
   4  -7   2   38.57    2.47
   4  -7   2   38.93    2.55
  -4   7  -2   40.85    2.74
  -4   7  -2   37.58    2.76
  -4   7  -2   36.95    2.49
  -4   7  -2   39.65    2.14
  -4   7  -2   38.28    2.12
   2  -7   3    0.25    0.39
   2  -7   3    0.73    0.46
   2  -7   3    0.39    0.38
   2  -7   3   -0.02    0.43
   2  -7   3    0.43    0.34
   2  -7   3    0.97    0.53
  -2   7  -3    0.90    0.40
  -2   7  -3    0.77    0.40
  -2   7  -3    0.38    0.14
  -2   7  -3    0.29    0.45
  -2   7  -3    0.43    0.44
  -2   7  -3    0.47    0.15
   0  -7   4    4.65    0.54
   0  -7   4    5.44    1.11
   0  -7   4    3.95    0.53
   0  -7   4    4.10    0.52
   0  -7   4    4.06    1.07
   0  -7   4    3.84    0.53
   0   7  -4    3.81    0.54
   0   7  -4    4.07    0.55
   0   7  -4    6.03    1.07
   0   7  -4    5.77    1.15
  -2  -7   5    7.55    1.46
  -2  -7   5    9.38    1.73
   2   7  -5   10.11    2.09
   2   7  -5    8.46    1.41
   2   7  -5    6.40    1.07
  -4  -7   6    1.50    0.95
  -4  -7   6   -0.41    0.77
   4   7  -6    1.04    0.69
   4   7  -6    0.97    0.66
   4   7  -6    1.07    0.83
   9  -6  -1   -0.09    0.53
   9  -6  -1    0.72    0.97
   9  -6  -1   -0.16    0.88
  -9   6   1    0.65    0.74
  -9   6   1    0.90    0.79
  -9   6   1    0.88    0.90
  -9   6   1    0.68    0.91
   7  -6   0    3.70    1.08
   7  -6   0    2.19    0.63
   7  -6   0    1.25    0.61
  -7   6   0    2.29    0.71
  -7   6   0    1.03    0.65
  -7   6   0    1.31    0.67
  -7   6   0    2.45    1.00
  -7   6   0    1.32    0.61
  -7   6   0    1.94    0.73
   5  -6   1    4.32    0.79
   5  -6   1    2.99    0.45
   5  -6   1    4.70    0.80
   5  -6   1    5.19    1.00
   5  -6   1    3.34    0.46
   5  -6   1    3.70    0.76
  -5   6  -1    4.45    0.71
  -5   6  -1    3.99    0.53
  -5   6  -1    4.77    0.88
  -5   6  -1    4.62    1.02
   3  -6   2    4.67    0.63
   3  -6   2    5.23    0.69
   3  -6   2    6.13    0.69
   3  -6   2    4.85    0.66
   3  -6   2    5.00    0.69
   3  -6   2    5.12    0.71
  -3   6  -2    6.04    0.73
  -3   6  -2    4.81    0.34
  -3   6  -2    5.72    0.68
  -3   6  -2    6.17    0.87
   1  -6   3    6.91    0.75
   1  -6   3    7.44    0.80
   1  -6   3    7.32    0.91
   1  -6   3    8.66    0.93
   1  -6   3    7.08    0.73
   1  -6   3    8.47    1.01
  -1   6  -3    8.00    0.76
  -1   6  -3    7.26    0.91
  -1   6  -3    8.56    0.58
  -1   6  -3    7.81    1.04
  -1   6  -3    7.70    0.56
  -1   6  -3    8.10    0.90
  -1   6  -3    6.89    0.75
  -1  -6   4    2.17    0.71
  -1  -6   4    1.31    0.24
  -1  -6   4    1.28    0.24
  -1  -6   4    1.04    0.47
  -1  -6   4    1.44    0.26
   1   6  -4    2.12    0.48
   1   6  -4    0.81    0.47
   1   6  -4    0.90    0.52
  -3  -6   5    1.29    0.84
  -3  -6   5    0.68    0.50
  -3  -6   5    0.57    0.43
   3   6  -5    0.09    0.56
   3   6  -5    1.00    0.62
   3   6  -5   -0.02    0.43
   3   6  -5    0.55    0.51
  -5  -6   6    1.55    0.80
  -5  -6   6    2.68    1.00
   5   6  -6    1.95    0.86
   5   6  -6    0.87    0.86
   5   6  -6    3.88    1.15
   8  -5  -1    0.32    0.57
   8  -5  -1   -1.11    0.68
   8  -5  -1   -0.16    0.59
  -8   5   1   -0.74    0.53
  -8   5   1   -0.04    0.86
  -8   5   1   -0.01    0.51
  -8   5   1    0.32    0.75
  -8   5   1   -0.58    0.56
   6  -5   0    1.20    0.48
   6  -5   0    1.60    0.36
   6  -5   0    2.29    0.79
  -6   5   0    1.28    0.49
  -6   5   0    1.55    0.51
  -6   5   0    1.54    0.64
  -6   5   0    2.17    0.76
  -6   5   0    2.19    0.79
   4  -5   1    9.14    0.71
   4  -5   1    8.63    0.70
   4  -5   1    6.11    0.71
   4  -5   1    6.64    0.74
  -4   5  -1    8.45    0.69
  -4   5  -1    9.77    0.88
  -4   5  -1    8.49    0.70
   2  -5   2    2.76    0.56
   2  -5   2    1.94    0.50
   2  -5   2    1.94    0.51
   2  -5   2    1.88    0.53
   2  -5   2    2.13    0.49
   2  -5   2    1.80    0.50
   2  -5   2    2.17    0.56
   2  -5   2    2.26    0.56
  -2   5  -2    2.19    0.56
  -2   5  -2    2.20    0.49
  -2   5  -2    2.32    0.54
  -2   5  -2    1.89    0.53
  -2   5  -2    3.29    0.63
  -2   5  -2    2.59    0.59
   0  -5   3    0.20    0.25
   0  -5   3    0.06    0.16
   0  -5   3    0.66    0.35
   0  -5   3   -0.05    0.27
   0  -5   3    0.50    0.36
   0  -5   3    0.57    0.41
   0  -5   3    0.37    0.24
   0  -5   3    0.19    0.20
   0  -5   3    0.09    0.37
   0  -5   3    0.04    0.18
   0   5  -3    0.42    0.20
   0   5  -3    0.48    0.33
   0   5  -3    0.54    0.41
   0   5  -3    0.38    0.27
   0   5  -3    0.46    0.28
  -2  -5   4   10.71    0.87
  -2  -5   4    7.54    1.01
  -2  -5   4    7.61    1.01
   2   5  -4   10.49    1.01
   2   5  -4    9.64    1.07
   2   5  -4    9.93    1.14
   2   5  -4   10.44    0.98
  -4  -5   5    1.41    0.71
  -4  -5   5    0.36    0.42
  -4  -5   5   -0.13    0.55
   4   5  -5   -0.59    0.26
   4   5  -5    0.04    0.61
   4   5  -5    0.25    0.55
   4   5  -5   -0.44    0.47
  -6  -5   6    0.12    0.72
  -6  -5   6    1.32    1.05
   6   5  -6    1.85    0.62
   6   5  -6    0.65    0.66
   6   5  -6   -0.37    0.52
   9  -4  -2   -0.95    0.73
   9  -4  -2    0.50    0.76
   9  -4  -2    0.34    0.62
  -9   4   2    0.65    0.74
  -9   4   2    3.46    1.32
  -9   4   2    0.79    0.98
   7  -4  -1    0.08    0.33
   7  -4  -1    0.65    0.64
   7  -4  -1    0.64    0.46
  -7   4   1   -0.23    0.52
  -7   4   1    0.10    0.63
  -7   4   1    1.41    0.64
  -7   4   1   -0.49    0.41
  -7   4   1    0.17    0.54
  -7   4   1    0.76    0.61
   5  -4   0    0.48    0.36
   5  -4   0   -0.14    0.18
   5  -4   0    0.27    0.24
   5  -4   0    0.37    0.45
  -5   4   0    0.38    0.29
  -5   4   0   -0.17    0.28
  -5   4   0    0.09    0.31
  -5   4   0    0.09    0.32
  -5   4   0   -0.29    0.25
  -5   4   0    0.27    0.27
   3  -4   1    3.93    0.48
   3  -4   1    3.97    0.52
   3  -4   1    4.12    0.45
   3  -4   1    3.72    0.44
   3  -4   1    4.12    0.56
   3  -4   1    4.42    0.78
   3  -4   1    4.56    0.74
   3  -4   1    3.97    0.48
  -3   4  -1    4.27    0.39
  -3   4  -1    3.84    0.55
  -3   4  -1    3.89    0.43
  -3   4  -1    4.77    0.63
  -3   4  -1    3.74    0.37
  -3   4  -1    4.25    0.56
  -3   4  -1    3.76    0.49
   1  -4   2  110.59    5.83
   1  -4   2  108.46    5.86
   1  -4   2  108.78    5.84
   1  -4   2  113.87    5.82
   1  -4   2  110.28    5.88
   1  -4   2  108.13    5.86
   1  -4   2  107.69    5.75
   1  -4   2  108.47    5.81
   1  -4   2  109.76    5.89
  -1   4  -2  115.80    5.79
  -1   4  -2  113.82    5.85
  -1   4  -2  111.92    5.82
  -1   4  -2  112.06    5.88
  -1   4  -2  115.82    5.91
  -1   4  -2  112.97    5.86
  -1  -4   3   18.15    1.05
  -1  -4   3   17.45    1.41
  -1  -4   3   18.99    1.05
  -1  -4   3   17.28    1.42
  -1  -4   3   18.47    1.15
  -1  -4   3   19.80    1.16
  -1  -4   3   18.39    1.43
  -1  -4   3   18.32    1.05
  -1  -4   3   19.19    1.49
  -1  -4   3   18.09    1.04
  -1  -4   3   19.41    1.47
   1   4  -3   19.56    1.47
   1   4  -3   19.34    1.28
   1   4  -3   19.71    1.49
   1   4  -3   20.31    1.46
   1   4  -3   19.14    1.28
   1   4  -3   19.36    1.42
  -3  -4   4    0.45    0.49
  -3  -4   4    0.56    0.34
  -3  -4   4   -0.13    0.46
   3   4  -4    0.11    0.40
   3   4  -4    0.58    0.45
   3   4  -4    0.10    0.35
   3   4  -4    0.20    0.30
  -5  -4   5    3.42    0.99
   5   4  -5    2.27    0.97
   5   4  -5    2.00    0.87
   5   4  -5    3.98    0.98
   5   4  -5    3.22    0.94
  -7  -4   6   -1.19    0.63
  -7  -4   6   -0.21    0.87
   7   4  -6   -0.48    0.76
   7   4  -6    0.23    0.64
   7   4  -6    0.89    0.88
   8  -3  -2   -0.08    0.72
   8  -3  -2    0.84    0.57
   8  -3  -2    0.84    0.69
   8  -3  -2    0.45    0.58
  -8   3   2   -0.32    0.78
  -8   3   2    0.45    0.52
  -8   3   2   -0.67    0.54
  -8   3   2    0.52    0.71
  -8   3   2    0.19    0.97
   6  -3  -1   11.02    1.23
   6  -3  -1   11.26    1.02
   6  -3  -1    7.63    0.85
  -6   3   1   11.76    1.16
  -6   3   1   13.85    1.23
   4  -3   0   77.21    4.13
   4  -3   0   78.92    4.37
   4  -3   0   71.75    3.99
   4  -3   0   75.07    4.24
   4  -3   0   76.69    4.14
   4  -3   0   77.08    4.00
  -4   3   0   72.70    4.34
  -4   3   0   73.29    4.19
  -4   3   0   74.27    4.28
  -4   3   0   75.64    4.00
  -4   3   0   76.07    4.13
  -4   3   0   76.85    4.12
  -4   3   0   76.45    4.12
   2  -3   1  157.40    7.98
   2  -3   1  153.12    7.86
   2  -3   1  152.15    7.80
   2  -3   1  149.25    7.79
   2  -3   1  151.45    7.82
   2  -3   1  151.90    7.86
   2  -3   1  152.68    7.90
   2  -3   1  152.01    7.77
  -2   3  -1  158.40    7.99
  -2   3  -1  155.45    7.86
  -2   3  -1  162.28    7.61
  -2   3  -1  154.26    7.78
  -2   3  -1  151.03    7.60
  -2   3  -1  162.50    7.94
  -2   3  -1  151.12    7.82
   0  -3   2    1.65    0.37
   0  -3   2    1.70    0.31
   0  -3   2    1.28    0.36
   0  -3   2    2.08    0.30
   0  -3   2    2.13    0.33
   0  -3   2    2.64    0.50
   0  -3   2    2.20    0.47
   0  -3   2    1.94    0.47
   0  -3   2    1.93    0.42
   0   3  -2    1.79    0.41
   0   3  -2    1.52    0.22
   0   3  -2    1.79    0.43
   0   3  -2    1.85    0.43
   0   3  -2    2.00    0.39
   0   3  -2    1.96    0.25
  -2  -3   3    0.62    0.34
  -2  -3   3    0.67    0.40
  -2  -3   3    0.13    0.29
  -2  -3   3    0.28    0.38
  -2  -3   3    0.96    0.33
  -2  -3   3    0.17    0.25
   2   3  -3   -0.02    0.23
   2   3  -3    0.22    0.20
   2   3  -3   -0.21    0.27
   2   3  -3   -0.01    0.21
   2   3  -3    0.49    0.30
   2   3  -3    0.09    0.25
  -4  -3   4    4.80    0.43
  -4  -3   4    8.27    0.95
  -4  -3   4    5.40    0.42
  -4  -3   4    6.09    1.06
   4   3  -4    6.18    0.84
   4   3  -4    5.78    0.45
   4   3  -4    5.80    1.03
   4   3  -4    6.32    0.46
   4   3  -4    6.60    0.88
   4   3  -4    6.07    0.82
  -6  -3   5    1.77    0.74
  -6  -3   5    0.72    0.77
   6   3  -5    3.20    0.95
   6   3  -5    1.52    0.37
   6   3  -5    1.00    0.41
   6   3  -5    0.95    0.63
   6   3  -5    0.41    0.53
   9  -2  -3    0.98    0.66
   9  -2  -3    0.60    0.81
   9  -2  -3    4.11    1.14
  -9   2   3    1.36    0.88
  -9   2   3    0.90    0.93
  -9   2   3    1.29    0.88
  -9   2   3    0.49    0.77
   7  -2  -2   26.24    1.99
   7  -2  -2   24.98    1.85
   7  -2  -2   24.58    2.11
  -7   2   2   22.67    2.10
  -7   2   2   26.85    1.96
  -7   2   2   26.08    2.16
  -7   2   2   27.17    2.12
  -7   2   2   27.47    2.17
   5  -2  -1    0.00    0.31
   5  -2  -1    0.25    0.26
   5  -2  -1    0.19    0.26
   5  -2  -1    1.24    0.48
  -5   2   1    0.47    0.37
  -5   2   1    0.71    0.49
  -5   2   1    0.40    0.35
  -5   2   1    0.45    0.31
  -5   2   1    0.30    0.28
   3  -2   0   13.98    0.99
   3  -2   0   14.21    0.96
   3  -2   0   13.99    1.05
   3  -2   0   14.63    0.77
   3  -2   0   15.18    0.98
   3  -2   0   15.67    1.17
   3  -2   0   15.03    1.04
  -3   2   0   14.84    1.15
  -3   2   0   14.77    0.77
  -3   2   0   14.07    0.92
  -3   2   0   14.79    1.02
  -3   2   0   15.49    1.08
  -3   2   0   14.64    1.03
  -1   2  -1 1000.00   49.88
  -1  -2   2    0.86    0.30
  -1  -2   2    0.95    0.12
  -1  -2   2    0.94    0.13
  -1  -2   2    0.79    0.22
  -1  -2   2    1.07    0.31
  -1  -2   2    1.65    0.41
  -1  -2   2    0.66    0.29
  -1  -2   2    1.29    0.33
   1   2  -2    1.16    0.34
   1   2  -2    0.87    0.28
   1   2  -2    1.16    0.29
   1   2  -2    1.04    0.16
   1   2  -2    1.11    0.29
   1   2  -2    0.89    0.11
   1   2  -2    1.38    0.37
  -3  -2   3    3.96    0.67
  -3  -2   3    3.71    0.53
  -3  -2   3    3.34    0.35
  -3  -2   3    3.61    0.38
  -3  -2   3    4.14    0.55
  -3  -2   3    4.05    0.69
  -3  -2   3    4.58    0.73
  -3  -2   3    3.77    0.53
  -3  -2   3    4.39    0.79
   3   2  -3    4.61    0.76
   3   2  -3    3.30    0.34
   3   2  -3    3.61    0.51
   3   2  -3    4.88    0.80
   3   2  -3    3.95    0.76
   3   2  -3    4.81    0.83
   3   2  -3    3.55    0.64
  -5  -2   4    3.74    0.57
  -5  -2   4    3.60    0.82
  -5  -2   4    4.43    1.03
  -5  -2   4    3.16    0.55
   5   2  -4    4.04    0.91
   5   2  -4    3.42    1.28
   5   2  -4    2.41    0.70
   5   2  -4    3.53    0.61
   5   2  -4    2.40    0.85
   5   2  -4    2.44    0.52
  -7  -2   5    1.14    0.81
  -7  -2   5   -0.07    0.39
  -7  -2   5   -0.80    0.55
  -7  -2   5    0.47    0.38
  -7  -2   5   -0.17    0.51
   7   2  -5   -0.03    0.49
   7   2  -5   -0.01    0.42
   7   2  -5    0.23    0.79
   7   2  -5   -0.46    0.68
   7   2  -5    0.75    0.70
   8  -1  -3    1.55    0.67
   8  -1  -3    1.39    0.65
   8  -1  -3    1.57    0.76
   8  -1  -3    2.20    0.83
  -8   1   3    1.60    1.00
  -8   1   3    2.85    0.86
  -8   1   3    0.61    0.77
  -8   1   3    0.77    0.38
  -8   1   3    1.09    0.81
   6  -1  -2    5.80    1.03
   6  -1  -2    5.18    0.74
   6  -1  -2    7.48    1.30
  -6   1   2    7.32    1.21
  -6   1   2    4.18    0.97
  -6   1   2    7.89    1.24
  -6   1   2    3.96    0.48
  -6   1   2    4.23    0.47
  -6   1   2    5.26    0.73
  -6   1   2    5.52    0.90
  -6   1   2    6.68    0.84
   4  -1  -1   15.01    1.14
   4  -1  -1   13.82    1.10
   4  -1  -1   14.32    1.18
   4  -1  -1   14.49    1.15
   4  -1  -1   13.58    1.00
  -4   1   1   13.37    1.11
  -4   1   1   13.58    0.99
  -4   1   1   14.23    1.15
  -4   1   1   14.07    1.14
  -4   1   1   13.91    0.84
  -4   1   1   14.01    0.84
  -4   1   1   12.74    1.12
  -4   1   1   13.56    1.14
  -4   1   1   13.60    1.09
   2  -1   0   22.51    1.17
   2  -1   0   23.89    1.32
   2  -1   0   23.69    1.37
   2  -1   0   22.19    1.23
   2  -1   0   22.16    1.31
   2  -1   0   22.19    1.40
   2  -1   0   22.03    1.35
   2  -1   0   22.60    1.34
  -2   1   0   20.93    1.31
  -2   1   0   22.91    1.17
  -2   1   0   24.95    1.38
  -2   1   0   21.67    1.23
  -2   1   0   22.55    1.37
  -2   1   0   22.64    1.35
  -2   1   0   22.48    1.40
   0  -1   1   69.66    3.51
   0   1  -1   67.37    3.49
   0   1  -1   71.59    3.40
   0   1  -1   72.06    3.46
   0   1  -1   64.98    3.39
   0   1  -1   65.34    3.49
   0   1  -1   69.62    3.50
  -2  -1   2   14.12    0.99
  -2  -1   2   13.71    1.01
  -2  -1   2   14.28    0.84
  -2  -1   2   13.05    0.94
  -2  -1   2   13.56    0.85
  -2  -1   2   14.79    1.01
  -2  -1   2   14.05    0.97
   2   1  -2   13.73    0.98
   2   1  -2   13.28    1.00
   2   1  -2   13.85    0.85
   2   1  -2   15.22    1.04
   2   1  -2   13.95    1.00
   2   1  -2   13.23    0.83
   2   1  -2   14.39    0.97
  -4  -1   3    9.55    0.80
  -4  -1   3    8.85    0.89
  -4  -1   3   10.20    0.79
  -4  -1   3    8.94    0.84
  -4  -1   3    9.18    0.97
  -4  -1   3    8.40    0.78
  -4  -1   3    8.73    0.90
   4   1  -3    9.37    1.05
   4   1  -3    7.89    0.93
   4   1  -3    9.75    0.98
   4   1  -3    9.82    0.80
   4   1  -3    9.10    0.76
   4   1  -3    8.76    0.92
   4   1  -3    9.64    0.95
  -6  -1   4    0.02    0.34
  -6  -1   4    1.55    0.56
  -6  -1   4    0.20    0.41
  -6  -1   4   -0.26    0.28
  -6  -1   4    0.74    0.61
  -6  -1   4    0.12    0.41
   6   1  -4    0.51    0.50
   6   1  -4    0.68    0.52
   6   1  -4    0.39    0.44
   6   1  -4   -0.33    0.36
  -8  -1   5   -0.72    0.63
  -8  -1   5    1.53    0.76
  -8  -1   5    0.69    0.64
  -8  -1   5   -0.25    0.56
  -8  -1   5   -0.21    0.65
   8   1  -5   -0.18    0.72
   8   1  -5   -0.32    0.56
   8   1  -5   -0.72    0.77
   8   1  -5    0.71    0.89
   9   0  -4   -0.43    0.62
   9   0  -4   -0.01    0.86
  -9   0   4    0.17    0.56
  -9   0   4    0.05    0.75
  -9   0   4    1.12    0.97
   7   0  -3    2.26    0.88
   7   0  -3    2.13    0.70
   7   0  -3    2.12    0.83
   7   0  -3    1.38    0.75
  -7   0   3    2.13    0.65
  -7   0   3    1.50    0.68
  -7   0   3    1.57    0.57
  -7   0   3    1.74    0.77
  -7   0   3    1.88    0.54
  -7   0   3    1.61    0.60
   5   0  -2    0.74    0.43
   5   0  -2    0.89    0.39
   5   0  -2    0.51    0.47
   5   0  -2    1.48    0.61
  -5   0   2    0.74    0.40
  -5   0   2    1.21    0.41
  -5   0   2    1.12    0.35
  -5   0   2    0.29    0.42
  -5   0   2    0.88    0.31
  -5   0   2    0.67    0.48
  -5   0   2    1.00    0.44
  -5   0   2    1.25    0.42
   3   0  -1    3.19    0.46
   3   0  -1    2.94    0.35
   3   0  -1    4.09    0.65
   3   0  -1    3.83    0.64
   3   0  -1    3.18    0.41
   3   0  -1    4.68    0.72
   3   0  -1    2.51    0.36
  -3   0   1    3.09    0.37
  -3   0   1    3.55    0.62
  -3   0   1    3.53    0.59
  -3   0   1    2.83    0.37
  -3   0   1    3.14    0.51
  -3   0   1    3.32    0.50
  -3   0   1    2.74    0.39
  -3   0   1    2.68    0.33
  -3   0   1    3.58    0.63
   1   0   0   87.44    4.85
   1   0   0   95.72    4.89
   1   0   0   88.17    4.87
  -1   0   0  103.93    4.85
  -1   0   0  105.38    4.92
  -1   0   0   97.01    4.91
  -1   0   0  102.71    4.87
  -1   0   0   98.66    4.89
  -1   0   1   28.10    1.51
  -1   0   1   26.71    1.52
  -1   0   1   28.71    1.49
  -1   0   1   28.09    1.47
  -1   0   1   30.08    1.56
  -1   0   1   28.00    1.50
   1   0  -1   27.66    1.51
   1   0  -1   28.75    1.53
   1   0  -1   28.74    1.50
   1   0  -1   28.57    1.55
   1   0  -1   26.93    1.48
   1   0  -1   26.82    1.49
  -3   0   2    0.61    0.30
  -3   0   2    0.68    0.35
  -3   0   2    0.88    0.23
  -3   0   2    0.61    0.21
  -3   0   2    0.74    0.30
  -3   0   2    0.73    0.28
  -3   0   2    0.85    0.31
  -3   0   2    0.56    0.25
  -3   0   2    0.48    0.29
   3   0  -2    0.37    0.30
   3   0  -2    0.47    0.26
   3   0  -2    0.89    0.33
   3   0  -2    0.72    0.32
   3   0  -2    0.69    0.33
   3   0  -2    0.20    0.27
  -5   0   3   16.34    1.26
  -5   0   3   16.01    1.46
  -5   0   3   18.95    1.51
  -5   0   3   16.53    1.16
  -5   0   3   17.26    1.19
  -5   0   3   16.15    1.39
  -5   0   3   16.33    1.31
  -5   0   3   15.39    1.28
   5   0  -3   17.10    1.51
   5   0  -3   15.89    1.40
   5   0  -3   17.03    1.37
   5   0  -3   17.12    1.46
  -7   0   4   -0.50    0.38
  -7   0   4   -0.35    0.48
  -7   0   4   -0.21    0.48
  -7   0   4    0.43    0.46
  -7   0   4    0.89    0.47
   7   0  -4    0.34    0.41
   7   0  -4    0.25    0.62
   7   0  -4   -0.20    0.43
  -9   0   5    1.50    0.79
  -9   0   5    0.48    0.90
  -9   0   5    0.15    0.76
  -9   0   5    1.90    1.09
   9   0  -5    0.42    0.74
   9   0  -5    0.49    0.60
   9   0  -5    1.44    0.84
   8   1  -4    0.14    0.54
   8   1  -4   -1.19    0.73
   8   1  -4    0.50    0.56
   8   1  -4    0.01    0.51
   8   1  -4    1.46    0.80
  -8  -1   4    0.58    0.62
  -8  -1   4   -0.11    0.47
  -8  -1   4    0.81    0.72
   6   1  -3    5.92    1.12
   6   1  -3    5.15    1.01
   6   1  -3    5.12    1.16
   6   1  -3    4.04    0.77
   6   1  -3    4.97    0.87
  -6  -1   3    5.46    0.86
  -6  -1   3    5.51    0.91
  -6  -1   3    4.71    1.06
  -6  -1   3    5.02    0.77
  -6  -1   3    4.65    0.68
  -6  -1   3    4.97    0.99
   4   1  -2   13.72    1.00
   4   1  -2   11.96    1.14
   4   1  -2   13.21    1.17
   4   1  -2   13.47    0.96
   4   1  -2   14.15    1.10
   4   1  -2   12.38    1.15
  -4  -1   2   12.36    1.00
  -4  -1   2   13.46    0.96
  -4  -1   2   12.98    1.20
  -4  -1   2   11.78    1.13
  -4  -1   2   13.57    1.03
  -4  -1   2   12.39    1.15
  -4  -1   2   14.02    1.16
   2   1  -1   78.16    3.87
   2   1  -1   73.21    4.06
   2   1  -1   81.59    4.09
   2   1  -1   79.59    4.02
   2   1  -1   74.70    4.01
   2   1  -1   72.88    4.07
   2   1  -1   78.24    3.90
  -2  -1   1   77.15    3.87
  -2  -1   1   74.57    4.00
  -2  -1   1   76.92    4.01
  -2  -1   1   74.75    3.89
  -2  -1   1   77.61    4.07
  -2  -1   1   72.90    4.05
  -2  -1   1   76.28    4.05
  -2  -1   1   77.10    4.00
  -2  -1   1   72.33    4.07
   0   1   0   -0.01    0.09
   0   1   0    0.13    0.07
   0   1   0    0.29    0.07
   0   1   0    0.05    0.07
   0   1   0    0.05    0.20
   0   1   0   -0.02    0.06
   0  -1   0    0.04    0.09
  -2   1   1   12.25    0.79
  -2   1   1   12.07    0.78
  -2   1   1   10.75    0.84
  -2   1   1   11.99    0.82
  -2   1   1   12.18    0.84
  -2   1   1   11.99    0.82
   2  -1  -1   12.66    0.82
   2  -1  -1   11.17    0.82
   2  -1  -1   12.32    0.86
   2  -1  -1   12.75    0.84
   2  -1  -1   10.73    0.83
   2  -1  -1   12.11    0.63
   2  -1  -1   12.69    0.82
  -4   1   2   15.39    1.20
  -4   1   2   15.53    1.16
  -4   1   2   14.56    1.18
  -4   1   2   14.66    0.91
  -4   1   2   13.24    1.16
  -4   1   2   15.23    1.11
  -4   1   2   15.83    1.22
  -4   1   2   16.41    1.18
  -4   1   2   15.57    0.91
   4  -1  -2   15.59    1.21
   4  -1  -2   14.03    1.14
   4  -1  -2   16.15    1.21
   4  -1  -2   15.49    1.16
   4  -1  -2   16.08    1.26
   4  -1  -2   14.64    1.10
  -6   1   3    1.25    0.55
  -6   1   3    1.25    0.55
  -6   1   3    0.92    0.46
  -6   1   3    2.21    0.75
  -6   1   3    2.21    0.62
  -6   1   3    0.89    0.28
  -6   1   3    0.99    0.30
   6  -1  -3    2.09    0.78
   6  -1  -3    1.53    0.50
  -8   1   4    0.78    0.73
  -8   1   4    0.37    0.36
  -8   1   4    0.26    0.70
  -8   1   4    0.94    0.65
  -8   1   4    0.35    0.68
   8  -1  -4    0.27    0.68
   8  -1  -4    0.92    0.86
   8  -1  -4    0.75    0.62
   7   2  -4    1.79    0.80
   7   2  -4    0.67    0.81
   7   2  -4    2.79    0.66
   7   2  -4    0.81    0.72
   7   2  -4    0.94    0.78
   7   2  -4    1.33    0.57
  -7  -2   4    1.23    0.82
  -7  -2   4    0.73    0.43
  -7  -2   4   -0.26    0.54
   5   2  -3    1.20    0.38
   5   2  -3    1.24    0.37
   5   2  -3    1.04    0.59
   5   2  -3    1.06    0.38
   5   2  -3    0.94    0.54
   5   2  -3    0.85    0.53
   5   2  -3    0.76    0.41
  -5  -2   3    1.42    0.34
  -5  -2   3    1.63    0.38
  -5  -2   3    1.09    0.44
  -5  -2   3    1.45    0.55
  -5  -2   3    0.87    0.40
   3   2  -2   16.48    1.29
   3   2  -2   16.51    1.00
   3   2  -2   15.31    1.28
   3   2  -2   18.61    1.34
   3   2  -2   15.62    0.97
   3   2  -2   17.60    1.32
   3   2  -2   15.64    1.23
   3   2  -2   18.95    1.09
  -3  -2   2   16.56    1.23
  -3  -2   2   16.22    1.24
  -3  -2   2   16.71    1.00
  -3  -2   2   16.53    0.98
  -3  -2   2   14.72    1.22
  -3  -2   2   16.68    1.33
  -3  -2   2   14.72    1.26
  -3  -2   2   16.89    1.43
   1   2  -1   10.44    0.83
   1   2  -1   10.88    0.83
   1   2  -1   11.14    0.84
   1   2  -1   11.32    0.79
  -1  -2   1   10.93    0.76
  -1  -2   1   11.41    0.82
  -1  -2   1   10.83    0.82
  -1  -2   1   10.63    0.75
  -1  -2   1   12.46    0.85
  -1  -2   1   10.05    0.81
  -1  -2   1   11.05    0.84
  -1   2   0   36.66    1.94
  -1   2   0   36.47    1.84
  -1   2   0   32.87    1.87
  -1   2   0   38.25    1.85
  -1   2   0   30.93    1.89
  -1   2   0   30.51    1.77
  -1   2   0   31.96    1.90
   1  -2   0   30.62    1.86
   1  -2   0   38.47    1.95
   1  -2   0   30.59    1.89
   1  -2   0   40.20    1.85
   1  -2   0   38.24    1.96
   1  -2   0   30.66    1.86
   1  -2   0   40.00    1.96
   1  -2   0   39.85    1.93
  -3   2   1    9.29    0.86
  -3   2   1    9.88    0.74
  -3   2   1   10.17    0.83
  -3   2   1   10.46    0.79
  -3   2   1    9.97    0.74
   3  -2  -1   10.03    0.75
   3  -2  -1   10.65    0.88
   3  -2  -1    8.32    0.77
   3  -2  -1    9.57    0.85
   3  -2  -1   10.16    0.76
   3  -2  -1   10.43    0.76
   3  -2  -1   10.39    0.75
  -5   2   2   39.94    2.54
  -5   2   2   39.40    2.53
  -5   2   2   40.13    2.66
  -5   2   2   38.57    2.36
  -5   2   2   37.65    2.49
  -5   2   2   37.36    2.43
   5  -2  -2   37.87    2.56
   5  -2  -2   41.18    2.60
   5  -2  -2   38.81    2.39
   5  -2  -2   40.30    2.47
   5  -2  -2   38.69    2.61
  -7   2   3   11.90    1.35
  -7   2   3   11.07    1.32
  -7   2   3    9.66    1.28
  -7   2   3   11.16    1.23
   7  -2  -3   10.44    1.15
   7  -2  -3    8.77    1.18
  -9   2   4    1.13    1.04
  -9   2   4    0.54    0.54
  -9   2   4    1.32    0.90
  -9   2   4    1.34    0.71
   9  -2  -4    0.47    0.73
   9  -2  -4    1.94    1.02
   9  -2  -4    2.17    0.86
   8   3  -5    2.22    1.27
   8   3  -5    1.24    1.01
   8   3  -5    2.28    0.99
  -8  -3   5    1.05    0.98
   6   3  -4    1.26    0.37
   6   3  -4    1.57    0.75
   6   3  -4    1.31    0.40
   6   3  -4    2.00    0.40
   6   3  -4    1.56    0.89
   6   3  -4    0.97    0.63
  -6  -3   4    1.32    0.67
  -6  -3   4    1.45    0.71
  -6  -3   4    1.39    0.64
   4   3  -3    4.90    0.38
   4   3  -3    6.21    1.12
   4   3  -3    5.57    0.98
   4   3  -3    7.50    1.18
   4   3  -3    4.93    0.39
   4   3  -3    5.63    1.01
   4   3  -3    5.06    0.38
   4   3  -3    4.72    0.40
  -4  -3   3    6.44    1.12
  -4  -3   3    5.47    0.95
  -4  -3   3    4.69    0.66
   2   3  -2    2.20    0.52
   2   3  -2    1.48    0.45
   2   3  -2    2.16    0.52
  -2  -3   2    1.36    0.49
  -2  -3   2    2.22    0.47
  -2  -3   2    1.66    0.41
  -2  -3   2    1.94    0.51
   0   3  -1   34.51    1.97
   0   3  -1   34.36    1.81
   0   3  -1   36.57    1.84
   0   3  -1   31.78    1.99
   0   3  -1   34.77    2.02
   0   3  -1   35.41    2.01
   0   3  -1   33.42    1.82
   0   3  -1   33.77    1.82
   0  -3   1   29.59    1.96
   0  -3   1   33.58    1.73
   0  -3   1   33.63    1.73
   0  -3   1   32.34    1.96
   0  -3   1   34.12    1.82
   0  -3   1   34.15    2.01
   0  -3   1   33.74    1.98
   0  -3   1   34.18    1.80
   0  -3   1   32.16    2.00
  -2   3   0    7.68    0.67
  -2   3   0    8.10    0.52
  -2   3   0    8.73    0.59
  -2   3   0    7.61    0.52
  -2   3   0    8.18    0.73
  -2   3   0    7.54    0.67
  -2   3   0    7.53    0.64
   2  -3   0    8.22    0.59
   2  -3   0    6.60    0.61
   2  -3   0    7.31    0.66
   2  -3   0    7.67    0.67
   2  -3   0    7.42    0.57
   2  -3   0    6.76    0.64
   2  -3   0    6.58    0.68
   2  -3   0    6.83    0.63
   2  -3   0    7.33    0.63
  -4   3   1    4.48    0.51
  -4   3   1    4.26    0.58
  -4   3   1    4.95    0.86
  -4   3   1    4.18    0.51
  -4   3   1    4.46    0.56
  -4   3   1    4.53    0.78
   4  -3  -1    4.94    0.80
   4  -3  -1    3.38    0.47
   4  -3  -1    5.14    0.53
   4  -3  -1    3.79    0.48
   4  -3  -1    4.09    0.46
   4  -3  -1    5.39    0.85
  -6   3   2    7.14    0.97
  -6   3   2    5.83    0.78
  -6   3   2    5.95    0.85
  -6   3   2    6.84    0.87
  -6   3   2    6.07    0.76
  -6   3   2    7.66    1.03
   6  -3  -2    6.91    0.94
   6  -3  -2    5.22    0.73
   6  -3  -2    6.57    0.78
   6  -3  -2    6.88    0.80
  -8   3   3    0.77    0.62
  -8   3   3    0.49    0.64
  -8   3   3    0.11    1.21
  -8   3   3    0.41    0.62
  -8   3   3    0.67    0.68
   8  -3  -3    1.30    0.67
   8  -3  -3    1.28    0.82
   8  -3  -3    1.24    0.73
   7   4  -5    0.27    0.90
   7   4  -5    0.11    0.88
   7   4  -5    0.23    0.62
  -7  -4   5    1.51    1.01
  -7  -4   5   -0.39    0.68
   5   4  -4    2.35    0.97
   5   4  -4    1.66    0.84
   5   4  -4    1.33    0.70
   5   4  -4    1.59    0.85
  -5  -4   4    2.96    0.84
  -5  -4   4    2.38    0.68
   3   4  -3    1.60    0.58
   3   4  -3    1.83    0.60
   3   4  -3    1.52    0.53
  -3  -4   3    1.65    0.67
  -3  -4   3    2.12    0.56
  -3  -4   3    1.58    0.59
   1   4  -2   14.70    1.08
   1   4  -2   14.22    1.17
   1   4  -2   14.89    1.07
   1   4  -2   14.80    1.18
   1   4  -2   14.27    1.23
  -1  -4   2   15.20    1.23
  -1  -4   2   13.78    1.18
  -1  -4   2   14.80    0.98
  -1  -4   2   13.86    0.75
  -1  -4   2   14.84    0.76
  -1  -4   2   15.16    1.25
  -1  -4   2   14.94    0.98
  -1  -4   2   14.12    1.18
  -1  -4   2   13.72    0.75
  -1  -4   2   15.98    1.20
  -1   4  -1    2.74    0.52
  -1   4  -1    2.60    0.46
  -1   4  -1    2.30    0.21
  -1   4  -1    2.15    0.21
  -1   4  -1    2.90    0.48
  -1   4  -1    1.17    0.35
   1  -4   1    2.83    0.54
   1  -4   1    2.72    0.45
   1  -4   1    3.27    0.54
   1  -4   1    3.98    0.51
   1  -4   1    1.68    0.42
   1  -4   1    2.60    0.49
   1  -4   1    2.86    0.48
   1  -4   1    2.12    0.48
   1  -4   1    1.89    0.48
  -3   4   0   43.10    2.60
  -3   4   0   39.04    2.49
  -3   4   0   39.20    2.43
  -3   4   0   37.65    2.23
  -3   4   0   39.46    2.16
  -3   4   0   36.85    2.28
  -3   4   0   38.57    2.20
   3  -4   0   38.68    2.17
   3  -4   0   44.35    2.47
   3  -4   0   38.83    2.31
   3  -4   0   39.26    2.55
   3  -4   0   38.29    2.17
   3  -4   0   38.36    2.20
   3  -4   0   38.51    2.31
  -5   4   1    1.01    0.35
  -5   4   1    1.21    0.52
  -5   4   1    0.66    0.37
  -5   4   1    0.97    0.44
  -5   4   1    0.46    0.31
  -5   4   1    0.54    0.38
   5  -4  -1    0.91    0.53
   5  -4  -1    1.15    0.38
   5  -4  -1    0.88    0.35
   5  -4  -1    1.15    0.36
  -7   4   2    5.03    0.95
  -7   4   2    6.06    1.10
  -7   4   2    5.35    1.21
  -7   4   2    4.79    0.98
  -7   4   2    5.42    1.17
   7  -4  -2    6.79    1.25
   7  -4  -2    6.98    1.18
   7  -4  -2    4.92    1.05
  -9   4   3    3.10    1.20
  -9   4   3    2.81    0.92
  -9   4   3    2.43    1.07
  -9   4   3    2.48    1.10
   9  -4  -3    4.62    1.41
   9  -4  -3    2.43    0.90
   6   5  -5    1.51    0.82
   6   5  -5    2.30    1.00
   6   5  -5    2.51    1.16
  -6  -5   5    2.69    0.99
  -6  -5   5    2.74    1.06
   4   5  -4    5.09    1.04
   4   5  -4    4.61    1.09
   4   5  -4    3.11    0.95
   4   5  -4    3.57    0.87
  -4  -5   4    3.88    0.80
  -4  -5   4    3.56    1.01
  -4  -5   4    5.92    1.22
   2   5  -3    5.38    0.72
   2   5  -3    4.44    0.87
   2   5  -3    2.94    0.80
  -2  -5   3    2.51    0.75
  -2  -5   3    6.50    1.12
  -2  -5   3    5.19    0.59
   0   5  -2    0.24    0.19
   0   5  -2    0.12    0.16
   0   5  -2    0.14    0.19
   0   5  -2    0.00    0.18
   0   5  -2    0.03    0.20
   0   5  -2   -0.17    0.28
   0   5  -2   -0.21    0.30
   0  -5   2   -0.04    0.30
   0  -5   2   -0.07    0.19
   0  -5   2   -0.30    0.15
   0  -5   2    0.37    0.36
   0  -5   2    0.17    0.19
   0  -5   2    0.03    0.27
   0  -5   2    0.15    0.34
   0  -5   2   -0.04    0.18
   0  -5   2   -0.13    0.30
  -2   5  -1    0.07    0.25
  -2   5  -1   -0.07    0.19
  -2   5  -1    0.17    0.17
  -2   5  -1    0.17    0.10
  -2   5  -1    0.02    0.08
   2  -5   1   -0.12    0.25
   2  -5   1    0.22    0.23
   2  -5   1    0.07    0.22
   2  -5   1    0.41    0.27
   2  -5   1    0.07    0.25
   2  -5   1    0.81    0.28
   2  -5   1    0.06    0.22
   2  -5   1    0.34    0.30
  -4   5   0    3.63    0.79
  -4   5   0    3.78    0.80
  -4   5   0    2.92    0.42
  -4   5   0    3.00    0.51
  -4   5   0    3.55    0.54
   4  -5   0    3.39    0.93
   4  -5   0    2.65    0.44
   4  -5   0    2.41    0.57
   4  -5   0    2.35    0.41
   4  -5   0    2.27    0.50
  -6   5   1    2.53    0.73
  -6   5   1    2.52    0.64
  -6   5   1    2.02    0.58
  -6   5   1    2.22    0.77
  -6   5   1    3.05    0.67
  -6   5   1    2.57    0.61
   6  -5  -1    4.09    0.55
   6  -5  -1    2.07    0.62
   6  -5  -1    2.33    0.82
   6  -5  -1    2.43    0.58
  -8   5   2   -0.18    0.48
  -8   5   2    1.87    0.71
  -8   5   2   -0.06    0.49
  -8   5   2    0.49    0.54
   8  -5  -2    0.33    0.53
   8  -5  -2   -0.19    0.49
   8  -5  -2    0.16    0.45
   5   6  -5    0.08    0.77
   5   6  -5    1.15    0.86
   5   6  -5    0.20    0.66
  -5  -6   5    2.18    0.99
  -5  -6   5    0.87    0.67
   3   6  -4   16.29    1.57
   3   6  -4   15.75    1.53
   3   6  -4   18.33    1.73
   3   6  -4   17.77    1.70
  -3  -6   4   18.83    1.80
  -3  -6   4   18.24    1.42
  -3  -6   4   21.80    1.92
   1   6  -3    0.30    0.23
   1   6  -3    0.26    0.45
   1   6  -3   -0.19    0.20
   1   6  -3    0.01    0.35
  -1  -6   3    0.18    0.50
  -1  -6   3    1.22    0.57
  -1  -6   3   -0.07    0.07
  -1  -6   3    0.07    0.09
  -1  -6   3    0.16    0.09
  -1  -6   3   -0.22    0.21
  -1  -6   3   -0.04    0.08
  -1   6  -2   46.52    2.54
  -1   6  -2   43.69    3.06
  -1   6  -2   46.98    2.97
  -1   6  -2   49.54    2.89
  -1   6  -2   47.80    2.55
  -1   6  -2   47.61    2.77
   1  -6   2   47.11    2.90
   1  -6   2   47.00    2.76
   1  -6   2   46.61    2.95
   1  -6   2   44.59    2.84
   1  -6   2   49.88    3.27
  -3   6  -1    2.09    0.26
  -3   6  -1    2.33    0.63
  -3   6  -1    2.00    0.28
  -3   6  -1    2.55    0.55
   3  -6   1    2.13    0.56
   3  -6   1    1.77    0.63
   3  -6   1    2.07    0.66
   3  -6   1    2.37    0.56
   3  -6   1    2.55    0.57
   3  -6   1    2.26    0.62
   3  -6   1    3.00    0.59
  -5   6   0    3.91    0.78
  -5   6   0    5.74    1.07
  -5   6   0    3.80    0.55
  -5   6   0    4.37    0.61
  -5   6   0    3.92    0.65
   5  -6   0    4.73    0.67
   5  -6   0    4.71    0.75
   5  -6   0    6.16    1.08
   5  -6   0    5.02    0.50
   5  -6   0    3.62    0.45
   5  -6   0    3.91    0.84
  -7   6   1    4.11    1.02
  -7   6   1    4.11    1.11
  -7   6   1    4.54    1.11
  -7   6   1    3.81    0.90
   7  -6  -1    4.97    0.94
   7  -6  -1    7.02    1.38
  -9   6   2    1.53    0.92
  -9   6   2    0.89    0.81
  -9   6   2    1.89    1.20
  -9   6   2    1.23    0.96
   9  -6  -2    1.92    1.17
   9  -6  -2    0.78    0.64
   4   7  -5    0.27    0.64
   4   7  -5    0.51    0.57
   4   7  -5    0.48    0.76
  -4  -7   5    0.30    0.85
  -4  -7   5    1.45    0.66
   2   7  -4   10.94    1.17
   2   7  -4   12.46    1.24
   2   7  -4   13.67    1.52
   2   7  -4   11.35    1.36
  -2  -7   4   12.33    1.50
  -2  -7   4   14.94    1.62
   0   7  -3    0.14    0.28
   0   7  -3   -0.24    0.40
   0   7  -3    0.23    0.20
   0   7  -3   -0.38    0.34
   0  -7   3   -0.15    0.26
   0  -7   3   -0.38    0.24
   0  -7   3    0.58    0.50
   0  -7   3   -0.36    0.26
   0  -7   3   -0.10    0.24
   0  -7   3    0.39    0.46
  -2   7  -2    5.05    0.94
  -2   7  -2    5.09    0.84
  -2   7  -2    4.17    0.42
  -2   7  -2    5.73    0.97
  -2   7  -2    3.77    0.39
  -2   7  -2    3.81    0.91
   2  -7   2    6.11    1.05
   2  -7   2    5.58    1.02
   2  -7   2    5.75    0.94
   2  -7   2    5.07    0.84
   2  -7   2    5.13    0.90
   2  -7   2    5.23    0.93
  -4   7  -1   21.00    1.34
  -4   7  -1   23.23    1.90
  -4   7  -1   20.68    1.53
  -4   7  -1   20.76    1.79
  -4   7  -1   21.55    1.36
   4  -7   1   21.96    1.56
   4  -7   1   22.04    1.57
   4  -7   1   22.20    1.80
   4  -7   1   21.80    1.60
   4  -7   1   22.19    1.71
   4  -7   1   21.28    1.56
  -6   7   0    1.67    0.56
  -6   7   0    2.33    0.81
  -6   7   0    1.27    0.45
  -6   7   0    1.49    0.67
  -6   7   0    1.50    0.52
   6  -7   0    2.31    0.83
   6  -7   0    1.38    0.51
   6  -7   0    1.75    0.33
   6  -7   0    1.97    0.61
  -8   7   1   -0.31    0.76
  -8   7   1    0.36    0.59
  -8   7   1    0.98    0.57
  -8   7   1   -0.63    0.54
  -8   7   1   -0.07    0.60
   8  -7  -1   -0.38    0.44
   8  -7  -1   -1.25    0.69
   3   8  -5   -0.06    0.64
   3   8  -5   -0.25    0.83
   3   8  -5    0.09    0.49
  -3  -8   5    0.01    0.75
  -3  -8   5   -0.15    0.78
   1   8  -4    8.76    1.03
   1   8  -4    9.70    1.60
   1   8  -4   10.63    1.11
   1   8  -4   11.09    1.41
  -1  -8   4   11.49    1.44
  -1  -8   4   10.25    1.72
  -1   8  -3    2.64    0.78
  -1   8  -3    2.72    0.63
  -1   8  -3    1.88    0.65
  -1   8  -3    2.82    0.60
  -1   8  -3    2.39    0.49
  -1   8  -3    2.50    0.50
   1  -8   3    2.95    0.94
   1  -8   3    3.17    0.92
   1  -8   3    3.26    0.67
   1  -8   3    2.62    0.61
   1  -8   3    2.76    0.66
   1  -8   3    2.49    0.82
  -3   8  -2    3.32    0.39
  -3   8  -2    3.97    0.91
  -3   8  -2    3.22    0.45
  -3   8  -2    5.32    1.03
  -3   8  -2    4.56    0.95
   3  -8   2    3.40    0.89
   3  -8   2    4.05    0.96
   3  -8   2    6.14    1.17
   3  -8   2    4.94    0.95
  -5   8  -1    0.41    0.30
  -5   8  -1   -0.15    0.51
  -5   8  -1    0.23    0.53
  -5   8  -1    0.13    0.33
  -5   8  -1    0.25    0.42
   5  -8   1   -0.67    0.39
   5  -8   1    0.64    0.42
   5  -8   1   -0.58    0.32
   5  -8   1    0.09    0.47
   5  -8   1    0.19    0.38
  -7   8   0    0.61    0.54
  -7   8   0   -0.38    0.47
  -7   8   0    0.04    0.45
  -7   8   0   -0.10    0.47
  -7   8   0   -0.04    0.38
   7  -8   0   -0.94    0.77
   7  -8   0    0.98    0.61
  -9   8   1    0.59    0.73
  -9   8   1   -0.83    0.81
  -9   8   1    1.22    0.97
  -9   8   1    0.70    1.07
   9  -8  -1    0.11    0.71
   9  -8  -1    1.43    0.71
  -2  -9   5    0.83    0.96
   0   9  -4    4.25    0.87
   0   9  -4    2.84    0.86
   0   9  -4    2.17    0.66
   0   9  -4    2.04    0.73
   0  -9   4    1.70    0.51
   0  -9   4    2.27    0.50
   0  -9   4    0.96    0.88
   0  -9   4    3.61    1.16
   0  -9   4    1.69    0.60
   0  -9   4    3.58    1.00
  -2   9  -3    0.45    0.50
  -2   9  -3    0.66    0.66
  -2   9  -3   -0.25    0.27
  -2   9  -3    0.32    0.25
  -2   9  -3   -0.36    0.39
  -2   9  -3   -0.14    0.41
   2  -9   3   -0.29    0.44
   2  -9   3   -0.42    0.41
   2  -9   3    0.62    0.47
   2  -9   3   -0.31    0.36
   2  -9   3    0.41    0.65
   2  -9   3    0.01    0.42
  -4   9  -2    7.51    1.32
   4  -9   2    3.68    1.00
  -6   9  -1   -0.08    0.52
  -6   9  -1    1.06    0.70
  -6   9  -1    0.28    0.39
  -6   9  -1    0.00    0.61
  -6   9  -1    0.57    0.40
   6  -9   1    0.45    0.60
   6  -9   1    0.34    0.64
   6  -9   1    1.62    0.61
   6  -9   1    0.42    0.53
   6  -9   1    0.57    0.46
  -8   9   0   -0.10    1.02
  -8   9   0    0.65    0.89
  -8   9   0    0.21    0.72
   8  -9   0   -0.94    0.60
   8  -9   0    0.87    0.67
   8  -9   0   -0.79    0.88
   1  10  -5    5.05    1.17
   1  10  -5    5.81    1.10
   1  10  -5    4.33    1.36
  -1 -10   5    5.04    1.35
  -1 -10   5    6.36    1.63
  -1 -10   5    4.05    1.55
  -1  10  -4    0.96    0.68
  -1  10  -4    0.34    0.47
  -1  10  -4    0.59    0.40
  -1  10  -4    0.62    0.59
   1 -10   4   -0.50    0.56
   1 -10   4    0.43    0.79
   1 -10   4    0.83    0.64
   1 -10   4    0.79    0.89
   1 -10   4    0.31    0.42
  -3  10  -3    0.90    0.29
  -3  10  -3    0.67    0.56
  -3  10  -3    0.43    0.35
  -3  10  -3    1.17    0.61
  -3  10  -3   -0.30    0.61
   3 -10   3   -0.15    0.77
   3 -10   3    1.81    0.68
   3 -10   3    0.77    0.58
   3 -10   3    0.21    0.48
   3 -10   3   -0.14    0.71
  -5  10  -2   -0.26    0.44
  -5  10  -2   -0.12    0.64
  -5  10  -2    0.19    0.26
  -5  10  -2    0.01    0.32
   5 -10   2    1.46    0.82
   5 -10   2    0.86    0.62
   5 -10   2    0.34    0.55
   5 -10   2    0.08    0.64
   5 -10   2   -0.39    0.74
  -7  10  -1    6.51    1.43
  -7  10  -1    5.65    0.82
  -7  10  -1    5.24    1.48
  -7  10  -1    6.20    1.12
   7 -10   1    4.26    0.99
   7 -10   1    5.87    1.63
   7 -10   1    5.67    1.63
   7 -10   1    6.53    1.44
   0  11  -5    1.09    0.83
   0  11  -5    0.32    0.75
   0  11  -5    0.56    0.61
   0 -11   5   -1.82    0.89
   0 -11   5    1.59    0.97
   0 -11   5    0.88    1.12
  -2  11  -4    1.50    0.51
  -2  11  -4    1.77    0.52
  -2  11  -4    2.01    1.03
   2 -11   4    3.41    1.00
   2 -11   4    1.68    0.94
   2 -11   4    1.69    0.85
   2 -11   4    1.71    1.08
   2 -11   4    3.32    1.13
   2 -11   4    1.56    1.17
  -4  11  -3    4.47    1.03
  -4  11  -3    3.04    0.58
  -4  11  -3    3.76    1.08
  -4  11  -3    1.82    0.45
   4 -11   3    4.52    1.17
   4 -11   3    1.92    0.87
   4 -11   3    2.12    0.93
   4 -11   3    5.02    1.19
   4 -11   3    3.08    1.01
   4 -11   3    1.51    1.14
  -6  11  -2    1.10    0.45
  -6  11  -2    0.56    0.88
  -6  11  -2    0.81    0.83
  -6  11  -2    0.89    0.52
   6 -11   2    1.95    0.95
   6 -11   2    1.08    1.18
   6 -11   2    2.77    0.89
   6 -11   2    2.09    0.79
   6 -11   2    2.41    1.18
   5 -11   4    1.25    0.91
   5 -11   4    1.20    1.01
   5 -11   4    1.61    0.88
   5 -11   4    0.82    1.02
   5 -11   4    3.53    1.09
   5 -11   4    3.26    1.15
  -5  11  -4    1.95    0.34
  -5  11  -4    2.06    0.92
  -5  11  -4    1.94    0.31
   3 -11   5    1.16    0.86
   3 -11   5    1.19    0.88
   3 -11   5    1.64    0.95
   3 -11   5    2.85    1.16
  -3  11  -5    2.90    0.43
  -3  11  -5    1.60    0.79
   1 -11   6   -0.79    0.91
   1 -11   6   -0.22    0.83
  -1  11  -6    0.11    0.81
  -1  11  -6   -1.36    0.76
  -1  11  -6   -0.78    0.89
   6 -10   3    3.06    0.85
   6 -10   3    2.86    1.08
   6 -10   3    3.78    2.31
   6 -10   3    3.43    1.31
   6 -10   3    2.37    0.94
   6 -10   3    2.74    0.84
  -6  10  -3    1.77    0.75
  -6  10  -3    3.20    0.62
  -6  10  -3    3.32    0.76
  -6  10  -3    3.03    1.21
   4 -10   4    2.60    0.95
   4 -10   4    3.79    0.93
   4 -10   4    1.29    0.69
   4 -10   4    2.52    1.06
   4 -10   4    4.87    1.13
   4 -10   4   -0.09    0.68
  -4  10  -4    0.99    0.22
  -4  10  -4    0.92    0.68
  -4  10  -4    1.16    0.18
   2 -10   5    6.73    1.45
   2 -10   5    5.65    1.17
   2 -10   5    5.92    1.26
   2 -10   5    6.68    1.46
   2 -10   5    7.58    1.40
   2 -10   5    7.03    1.43
  -2  10  -5    5.48    1.07
  -2  10  -5    4.71    0.55
  -2  10  -5    3.69    0.54
  -2  10  -5    6.38    1.31
   0 -10   6    2.75    1.34
   0 -10   6    1.66    0.91
   0 -10   6    2.97    1.30
   0  10  -6    3.74    1.23
   0  10  -6    2.73    1.00
   0  10  -6    3.33    0.78
   7  -9   2    0.76    0.91
   7  -9   2    0.59    0.86
   7  -9   2    0.46    0.57
  -7   9  -2   -0.44    0.45
  -7   9  -2   -0.64    0.62
  -7   9  -2    0.50    0.56
  -7   9  -2    0.28    0.59
  -7   9  -2    0.03    0.73
   5  -9   3    1.24    0.53
   5  -9   3    1.85    0.74
   5  -9   3    2.88    0.77
   5  -9   3    1.49    0.61
   5  -9   3    0.65    0.52
  -5   9  -3    2.33    0.98
  -5   9  -3    2.36    0.82
  -5   9  -3    2.17    0.74
  -5   9  -3    2.24    0.46
  -5   9  -3    2.57    0.49
   3  -9   4    1.21    0.67
   3  -9   4    2.30    0.72
   3  -9   4    1.58    0.74
   3  -9   4    0.17    0.53
   3  -9   4    0.91    0.60
  -3   9  -4    0.77    0.19
  -3   9  -4    1.00    0.20
  -3   9  -4    0.85    0.59
   1  -9   5    0.60    0.53
   1  -9   5    0.02    0.68
   1  -9   5    0.95    0.63
  -1   9  -5    0.44    0.31
  -1   9  -5    0.21    0.32
  -1   9  -5    0.22    0.54
  -1   9  -5    0.24    0.57
  -1  -9   6    0.67    0.84
  -1  -9   6    2.58    1.14
   1   9  -6    0.19    0.51
   1   9  -6    1.30    0.89
   1   9  -6    2.02    0.78
   1   9  -6    0.57    0.54
  -3  -9   7    6.19    1.58
  -3  -9   7    5.01    1.50
   3   9  -7    2.30    1.08
   3   9  -7    5.09    1.49
   8  -8   1    0.75    0.49
   8  -8   1   -0.10    0.84
   8  -8   1    0.52    1.01
  -8   8  -1   -0.75    0.78
  -8   8  -1    0.59    0.53
  -8   8  -1    0.09    0.79
  -8   8  -1   -0.53    0.69
   6  -8   2   -0.08    0.38
   6  -8   2   -0.88    0.34
   6  -8   2    0.09    0.41
   6  -8   2    0.56    0.59
  -6   8  -2   -0.35    0.26
  -6   8  -2    0.58    0.60
  -6   8  -2   -0.21    0.37
  -6   8  -2    0.82    0.54
  -6   8  -2    0.29    0.59
   4  -8   3   -0.10    0.49
   4  -8   3    1.27    0.57
   4  -8   3    0.64    0.55
   4  -8   3    3.55    0.76
   4  -8   3    1.53    0.66
  -4   8  -3    0.66    0.45
  -4   8  -3    1.71    0.70
  -4   8  -3    0.78    0.22
  -4   8  -3    0.94    0.55
  -4   8  -3    0.87    0.21
   2  -8   4    2.85    0.73
   2  -8   4    2.35    0.76
   2  -8   4    2.85    0.80
   2  -8   4    1.70    0.71
   2  -8   4    1.91    0.77
   2  -8   4    2.91    0.79
  -2   8  -4    1.79    0.66
  -2   8  -4    2.20    0.28
  -2   8  -4    2.16    0.64
  -2   8  -4    1.35    0.55
   0  -8   5    6.36    1.31
   0  -8   5    5.51    0.86
   0  -8   5    4.46    0.70
   0  -8   5    5.65    1.18
   0   8  -5    5.16    1.22
   0   8  -5    4.65    0.68
   0   8  -5    4.33    1.02
   0   8  -5    4.54    0.75
  -2  -8   6    0.32    0.59
  -2  -8   6    0.20    0.45
   2   8  -6    0.02    0.63
   2   8  -6    0.35    0.45
   2   8  -6   -0.33    0.62
   2   8  -6    0.28    0.37
  -4  -8   7   -0.44    0.98
   4   8  -7   -0.09    0.83
   4   8  -7    0.24    0.66
   9  -7   0    0.46    0.72
  -9   7   0   -0.82    0.80
  -9   7   0    0.85    1.06
   7  -7   1    0.07    0.48
   7  -7   1    1.82    0.88
  -7   7  -1   -0.39    0.46
  -7   7  -1   -0.73    0.38
  -7   7  -1    0.47    0.47
  -7   7  -1   -0.42    0.50
  -7   7  -1    0.74    0.43
   5  -7   2    9.05    0.89
   5  -7   2    8.40    1.16
   5  -7   2    9.06    1.12
  -5   7  -2    8.36    0.99
  -5   7  -2    8.56    0.76
  -5   7  -2    7.97    0.77
  -5   7  -2    8.61    1.17
  -5   7  -2    8.76    1.21
   3  -7   3   55.37    3.39
   3  -7   3   55.06    3.40
   3  -7   3   56.76    3.42
   3  -7   3   54.52    3.40
   3  -7   3   54.48    3.51
  -3   7  -3   52.67    3.47
  -3   7  -3   55.87    3.41
  -3   7  -3   54.07    3.40
  -3   7  -3   54.36    3.40
  -3   7  -3   57.78    3.42
   1  -7   4   -0.40    0.32
   1  -7   4    0.25    0.26
   1  -7   4    0.52    0.41
   1  -7   4    0.95    0.40
   1  -7   4    0.16    0.48
  -1   7  -4    0.35    0.37
  -1   7  -4    0.15    0.19
  -1   7  -4    0.30    0.21
  -1   7  -4    0.60    0.33
  -1   7  -4    0.56    0.52
  -1   7  -4    0.19    0.28
  -1  -7   5    2.51    0.38
  -1  -7   5    2.14    0.69
  -1  -7   5    2.30    0.37
  -1  -7   5    1.98    0.90
   1   7  -5    2.05    0.75
   1   7  -5    2.43    0.77
   1   7  -5    1.91    0.54
   1   7  -5    2.19    0.62
  -3  -7   6    0.17    0.59
  -3  -7   6    1.47    0.70
   3   7  -6    2.17    0.77
   3   7  -6    1.18    0.64
   3   7  -6    0.98    0.71
  -5  -7   7    3.36    1.26
  -5  -7   7    1.30    0.95
   5   7  -7    4.03    1.10
   5   7  -7    2.29    0.91
   5   7  -7    1.75    1.01
   8  -6   0    1.06    0.70
   8  -6   0    0.00    0.44
   8  -6   0    1.12    0.90
  -8   6   0    0.23    0.78
  -8   6   0    1.33    0.67
  -8   6   0    0.74    0.94
  -8   6   0   -0.11    0.54
  -8   6   0    1.48    0.78
   6  -6   1   10.24    0.99
   6  -6   1   11.35    0.72
   6  -6   1   11.20    1.01
   6  -6   1   12.34    1.32
   6  -6   1   11.89    1.38
  -6   6  -1   10.29    1.12
  -6   6  -1   14.21    1.48
  -6   6  -1   10.72    1.06
  -6   6  -1   11.88    1.08
  -6   6  -1   10.39    1.39
   4  -6   2   23.14    1.96
   4  -6   2   22.62    1.57
   4  -6   2   23.77    1.66
   4  -6   2   23.77    1.76
   4  -6   2   23.78    1.61
   4  -6   2   21.12    1.61
   4  -6   2   21.49    1.69
  -4   6  -2   23.04    1.83
  -4   6  -2   23.97    1.42
  -4   6  -2   25.54    1.77
  -4   6  -2   25.62    1.96
  -4   6  -2   23.62    1.41
   2  -6   3    1.32    0.54
   2  -6   3    0.72    0.37
   2  -6   3    1.01    0.45
   2  -6   3    0.16    0.36
   2  -6   3    1.15    0.44
   2  -6   3    0.63    0.37
   2  -6   3    0.44    0.44
   2  -6   3    1.26    0.48
   2  -6   3    1.28    0.51
   2  -6   3    0.72    0.42
  -2   6  -3    0.10    0.39
  -2   6  -3    0.95    0.40
  -2   6  -3    0.27    0.35
  -2   6  -3    1.40    0.49
  -2   6  -3    0.74    0.37
  -2   6  -3    0.66    0.37
   0  -6   4   11.10    1.18
   0  -6   4   11.33    1.17
   0  -6   4   11.30    0.89
   0  -6   4    8.91    0.79
   0  -6   4   11.29    0.85
   0  -6   4    9.86    0.84
   0   6  -4   10.04    0.82
   0   6  -4   11.64    0.87
   0   6  -4   11.89    1.20
   0   6  -4   11.85    1.22
   0   6  -4   11.01    1.07
  -2  -6   5    0.37    0.29
  -2  -6   5    0.27    0.43
  -2  -6   5    0.41    0.49
   2   6  -5    0.58    0.35
   2   6  -5    0.09    0.33
   2   6  -5    0.75    0.61
   2   6  -5    0.35    0.34
  -4  -6   6    0.03    0.51
  -4  -6   6    0.42    0.68
  -4  -6   6    0.71    0.73
   4   6  -6   -0.10    0.64
   4   6  -6   -0.53    0.52
   4   6  -6   -0.57    0.34
   4   6  -6    0.53    0.59
   6   6  -7   -0.86    1.02
   6   6  -7    0.26    0.97
   9  -5  -1    2.33    1.21
   9  -5  -1    2.47    1.19
  -9   5   1    3.20    1.24
  -9   5   1    1.54    0.94
  -9   5   1    1.16    1.01
   7  -5   0    7.88    1.39
   7  -5   0    5.95    1.30
   7  -5   0    3.41    0.64
   7  -5   0    5.17    0.82
  -7   5   0    4.42    0.96
  -7   5   0    5.74    1.22
  -7   5   0    4.33    1.05
  -7   5   0    6.16    1.32
   5  -5   1    4.52    0.59
   5  -5   1    4.12    0.56
   5  -5   1    5.41    0.91
   5  -5   1    6.44    1.11
   5  -5   1    4.46    0.45
  -5   5  -1    5.32    0.64
  -5   5  -1    4.31    0.59
  -5   5  -1    6.30    1.07
  -5   5  -1    4.14    0.57
  -5   5  -1    5.36    1.06
  -5   5  -1    7.50    1.10
   3  -5   2   49.27    3.03
   3  -5   2   51.23    2.98
   3  -5   2   50.55    2.98
   3  -5   2   51.83    2.98
   3  -5   2   52.57    3.00
   3  -5   2   53.19    3.24
   3  -5   2   54.52    3.08
   3  -5   2   50.18    3.19
   3  -5   2   50.24    3.05
  -3   5  -2   53.71    3.08
  -3   5  -2   52.32    2.98
  -3   5  -2   52.58    3.15
  -3   5  -2   50.63    2.66
  -3   5  -2   54.66    2.67
  -3   5  -2   50.81    3.20
   1  -5   3    0.92    0.35
   1  -5   3    0.38    0.28
   1  -5   3    0.64    0.28
   1  -5   3    0.78    0.38
   1  -5   3    0.35    0.26
   1  -5   3    0.32    0.34
   1  -5   3   -0.29    0.27
   1  -5   3    1.10    0.41
   1  -5   3    0.29    0.33
  -1   5  -3    0.67    0.27
  -1   5  -3    0.77    0.40
  -1   5  -3    0.28    0.38
  -1   5  -3    0.57    0.13
  -1   5  -3    0.61    0.12
  -1   5  -3    0.64    0.37
  -1  -5   4    1.83    0.26
  -1  -5   4    2.17    0.28
  -1  -5   4    2.49    0.73
  -1  -5   4    3.19    0.75
   1   5  -4    2.03    0.49
   1   5  -4    1.99    0.65
   1   5  -4    2.27    0.49
   1   5  -4    1.89    0.64
   1   5  -4    2.39    0.65
  -3  -5   5   12.51    1.14
  -3  -5   5   11.72    1.42
  -3  -5   5   14.44    1.49
   3   5  -5   14.18    1.45
   3   5  -5   11.85    1.24
   3   5  -5   16.92    1.51
   3   5  -5   14.30    1.35
  -5  -5   6    2.29    0.95
  -5  -5   6    0.85    0.73
  -5  -5   6    0.40    0.53
   5   5  -6    1.07    0.73
   5   5  -6    1.51    0.82
   5   5  -6    0.34    0.94
   5   5  -6    2.05    0.87
   8  -4  -1    0.63    0.55
   8  -4  -1    0.17    0.52
   8  -4  -1    0.22    0.42
   8  -4  -1    1.60    0.78
  -8   4   1    1.44    0.69
  -8   4   1    1.19    0.74
  -8   4   1    2.69    1.04
  -8   4   1    0.64    0.73
  -8   4   1    1.12    0.79
  -8   4   1    1.88    0.78
   6  -4   0   11.08    1.24
   6  -4   0    9.06    0.84
   6  -4   0    9.01    0.82
  -6   4   0    7.95    0.81
  -6   4   0   10.94    1.07
  -6   4   0    8.51    1.57
  -6   4   0    9.04    1.19
  -6   4   0    9.20    1.03
   4  -4   1    5.58    0.57
   4  -4   1    5.45    0.55
   4  -4   1    4.53    0.60
   4  -4   1    5.51    0.73
   4  -4   1    5.41    0.47
  -4   4  -1    5.93    0.56
  -4   4  -1    5.75    0.67
  -4   4  -1    6.12    1.20
  -4   4  -1    6.14    0.70
  -4   4  -1    6.24    0.68
  -4   4  -1    6.08    0.76
   2  -4   2   36.14    2.17
   2  -4   2   38.38    2.19
   2  -4   2   39.09    2.34
   2  -4   2   35.89    2.22
   2  -4   2   38.15    2.21
   2  -4   2   37.09    2.20
   2  -4   2   34.75    2.29
   2  -4   2   36.82    2.19
  -2   4  -2   38.76    2.21
  -2   4  -2   37.50    2.27
  -2   4  -2   38.45    2.21
  -2   4  -2   38.28    2.33
  -2   4  -2   35.73    2.20
  -2   4  -2   36.40    2.23
   0  -4   3   73.58    4.11
   0  -4   3   76.92    4.26
   0  -4   3   74.16    4.00
   0  -4   3   77.18    4.00
   0  -4   3   75.21    3.95
   0  -4   3   71.34    4.22
   0  -4   3   75.18    4.23
   0  -4   3   76.02    3.96
   0  -4   3   76.23    4.33
   0   4  -3   78.56    3.93
   0   4  -3   74.00    4.13
   0   4  -3   77.08    4.24
   0   4  -3   75.43    4.23
   0   4  -3   77.12    4.26
   0   4  -3   76.42    3.92
  -2  -4   4   19.40    1.42
  -2  -4   4   17.94    0.96
  -2  -4   4   19.51    1.58
  -2  -4   4   16.19    1.47
  -2  -4   4   17.88    0.95
  -2  -4   4   18.34    0.96
  -2  -4   4   18.30    1.53
   2   4  -4   18.87    1.40
   2   4  -4   17.89    1.47
   2   4  -4   22.47    1.63
   2   4  -4   19.68    1.56
  -4  -4   5    7.97    1.36
  -4  -4   5    5.70    1.21
   4   4  -5    7.24    1.31
   4   4  -5    8.05    1.30
   4   4  -5    6.03    0.88
   4   4  -5    7.73    1.34
  -6  -4   6    1.34    0.86
  -6  -4   6   -0.59    0.63
  -6  -4   6   -0.51    0.55
   6   4  -6    0.00    0.59
   6   4  -6    0.62    0.56
   6   4  -6    0.76    0.53
   9  -3  -2    1.09    0.64
   9  -3  -2    1.08    0.89
   9  -3  -2    0.14    0.67
  -9   3   2    2.09    1.10
  -9   3   2   -0.02    0.71
  -9   3   2    0.13    0.70
  -9   3   2    0.28    0.80
   7  -3  -1    1.40    0.63
   7  -3  -1    1.71    0.60
   7  -3  -1    0.30    0.41
   7  -3  -1    0.54    0.50
  -7   3   1   -0.30    0.47
  -7   3   1    0.13    0.48
  -7   3   1   -0.33    0.31
  -7   3   1    0.37    0.47
  -7   3   1    1.14    0.63
   5  -3   0    2.28    0.46
   5  -3   0    2.12    0.60
   5  -3   0    1.27    0.59
  -5   3   0    2.38    0.54
  -5   3   0    2.63    0.63
  -5   3   0    1.34    0.45
  -5   3   0    2.71    0.69
  -5   3   0    1.60    0.38
   3  -3   1  136.70    7.43
   3  -3   1  143.54    7.30
   3  -3   1  144.24    7.28
   3  -3   1  141.91    6.96
   3  -3   1  142.91    7.11
   3  -3   1  141.76    6.96
   3  -3   1  137.91    7.11
  -3   3  -1  136.77    7.37
  -3   3  -1  140.91    7.08
  -3   3  -1  142.28    7.14
  -3   3  -1  138.61    7.10
  -3   3  -1  131.31    7.41
  -3   3  -1  145.98    7.28
  -3   3  -1  143.10    7.27
  -3   3  -1  141.92    7.12
   1  -3   2   12.53    0.94
   1  -3   2   12.36    0.94
   1  -3   2   14.00    0.92
   1  -3   2   12.44    0.94
   1  -3   2   13.82    0.96
   1  -3   2   13.95    0.94
  -1   3  -2   13.61    0.97
  -1   3  -2   13.06    0.92
  -1   3  -2   12.49    0.96
  -1   3  -2   12.81    0.95
  -1   3  -2   13.40    0.94
  -1   3  -2   13.32    0.91
  -1  -3   3    2.36    0.25
  -1  -3   3    3.67    0.71
  -1  -3   3    2.38    0.27
  -1  -3   3    3.42    0.64
  -1  -3   3    2.49    0.56
  -1  -3   3    3.04    0.57
  -1  -3   3    2.06    0.30
  -1  -3   3    2.38    0.26
  -1  -3   3    2.86    0.29
  -1  -3   3    3.29    0.63
  -1  -3   3    2.95    0.54
   1   3  -3    3.33    0.62
   1   3  -3    3.28    0.56
   1   3  -3    2.52    0.60
   1   3  -3    3.80    0.67
   1   3  -3    2.80    0.45
   1   3  -3    2.26    0.26
   1   3  -3    2.37    0.34
  -3  -3   4    6.49    0.83
  -3  -3   4    7.30    0.88
  -3  -3   4    7.08    0.46
  -3  -3   4    6.37    0.47
  -3  -3   4    7.40    0.74
  -3  -3   4    8.21    0.92
   3   3  -4    5.82    0.46
   3   3  -4    6.24    0.83
   3   3  -4    6.30    0.79
   3   3  -4    6.31    0.82
   3   3  -4    5.42    0.77
  -5  -3   5    0.40    0.25
  -5  -3   5    0.96    0.54
  -5  -3   5    0.34    0.43
  -5  -3   5    1.06    0.29
  -5  -3   5    1.15    0.64
   5   3  -5    1.17    0.61
   5   3  -5    0.74    0.28
   5   3  -5    0.67    0.58
   5   3  -5    1.08    0.59
   5   3  -5    1.45    0.57
  -7  -3   6    0.09    0.82
  -7  -3   6    0.64    0.70
   7   3  -6    0.82    0.87
   7   3  -6    1.10    0.81
   7   3  -6    0.54    0.49
   7   3  -6    0.25    0.79
   8  -2  -2    0.30    0.67
   8  -2  -2    1.30    0.75
   8  -2  -2    0.66    0.53
   8  -2  -2    2.15    0.67
  -8   2   2    2.34    0.92
  -8   2   2    0.36    0.65
  -8   2   2    1.98    0.74
  -8   2   2    0.74    0.93
  -8   2   2    1.42    0.73
   6  -2  -1   41.87    2.83
   6  -2  -1   42.33    2.49
  -6   2   1   36.19    2.41
  -6   2   1   41.79    2.77
  -6   2   1   46.88    2.87
  -6   2   1   41.75    2.84
   4  -2   0   14.27    0.93
   4  -2   0   15.27    1.19
   4  -2   0   14.31    1.12
   4  -2   0   13.87    0.78
   4  -2   0   14.41    1.05
   4  -2   0   14.00    1.05
   4  -2   0   13.50    1.19
  -4   2   0   14.36    0.93
  -4   2   0   13.81    0.78
  -4   2   0   12.78    1.13
  -4   2   0   13.00    1.11
  -4   2   0   16.11    1.17
  -4   2   0   14.07    1.21
  -4   2   0   13.21    1.09
  -4   2   0   14.14    1.09
   2  -2   1  575.63   29.44
   2  -2   1  578.32   29.47
  -2   2  -1  602.75   34.39
  -2   2  -1  606.76   34.37
   0  -2   2   59.14    3.16
   0  -2   2   53.33    3.12
   0  -2   2   57.96    3.04
   0  -2   2   58.21    3.05
   0  -2   2   58.20    3.14
   0  -2   2   58.47    3.02
   0  -2   2   58.95    3.02
   0  -2   2   56.52    3.11
   0  -2   2   58.57    3.04
   0   2  -2   59.94    2.96
   0   2  -2   59.24    3.15
   0   2  -2   58.06    3.01
   0   2  -2   56.58    3.14
   0   2  -2   59.59    2.96
   0   2  -2   58.74    3.12
   0   2  -2   58.86    3.04
   0   2  -2   60.42    3.15
  -2  -2   3    7.78    0.75
  -2  -2   3    8.14    0.81
  -2  -2   3    7.23    0.66
  -2  -2   3    6.52    0.50
  -2  -2   3    6.79    0.49
  -2  -2   3    7.44    0.71
  -2  -2   3    7.32    0.70
  -2  -2   3    7.22    0.68
  -2  -2   3    6.94    0.69
   2   2  -3    5.97    0.68
   2   2  -3    7.44    0.74
   2   2  -3    7.09    0.68
   2   2  -3    7.23    0.51
   2   2  -3    8.51    0.77
   2   2  -3    6.65    0.69
   2   2  -3    7.04    0.49
   2   2  -3    6.73    0.68
  -4  -2   4    4.03    0.73
  -4  -2   4    3.45    0.73
  -4  -2   4    3.69    0.42
  -4  -2   4    3.91    0.85
  -4  -2   4    3.30    0.44
   4   2  -4    5.20    0.92
   4   2  -4    5.37    1.01
   4   2  -4    5.28    0.98
   4   2  -4    3.81    0.86
   4   2  -4    4.26    0.60
  -6  -2   5    2.80    0.92
  -6  -2   5    2.68    0.54
  -6  -2   5    2.34    0.80
  -6  -2   5    2.32    0.55
  -6  -2   5    2.53    0.72
   6   2  -5    3.36    0.87
   6   2  -5    2.02    0.56
   6   2  -5    2.48    0.86
   6   2  -5    1.94    0.88
  -8  -2   6    0.61    0.88
  -8  -2   6    0.24    0.82
  -8  -2   6   -0.86    0.49
   8   2  -6    0.97    0.91
   8   2  -6    1.51    0.89
   8   2  -6    2.74    1.19
   8   2  -6   -0.56    0.78
   9  -1  -3   -0.11    0.71
   9  -1  -3    1.94    1.12
   9  -1  -3    0.08    0.82
   9  -1  -3    0.13    0.68
  -9   1   3    0.99    0.74
  -9   1   3    1.64    0.75
  -9   1   3    1.19    0.95
  -9   1   3    1.26    0.89
   7  -1  -2   10.45    1.18
   7  -1  -2    9.26    1.25
   7  -1  -2    9.01    1.21
  -7   1   2    8.75    1.13
  -7   1   2    8.75    1.06
  -7   1   2    7.19    0.66
  -7   1   2    9.25    1.54
  -7   1   2   11.19    1.25
  -7   1   2    8.33    1.43
  -7   1   2    7.19    0.68
   5  -1  -1   30.76    2.10
   5  -1  -1   30.69    2.04
   5  -1  -1   29.08    2.04
   5  -1  -1   30.72    1.85
  -5   1   1   26.67    1.93
  -5   1   1   31.03    1.75
  -5   1   1   29.15    1.82
  -5   1   1   29.26    2.09
  -5   1   1   29.38    2.04
  -5   1   1   28.90    2.05
  -5   1   1   27.95    1.66
  -5   1   1   29.08    2.22
   3  -1   0    3.92    0.48
   3  -1   0    5.05    0.50
   3  -1   0    3.58    0.50
   3  -1   0    3.77    0.51
  -3   1   0    4.66    0.54
  -3   1   0    4.13    0.34
  -3   1   0    4.72    0.52
   1  -1   1   84.58    3.94
   1  -1   1   80.65    3.76
   1  -1   1   74.84    3.88
   1  -1   1   77.04    3.75
   1  -1   1   73.94    3.80
   1  -1   1   72.39    3.94
   1  -1   1   74.40    3.97
   1  -1   1   65.43    3.85
   1  -1   1   68.79    3.80
  -1   1  -1   77.73    3.80
  -1   1  -1   76.29    3.88
  -1   1  -1   74.65    3.87
  -1   1  -1   74.65    3.81
  -1   1  -1   79.28    3.79
  -1   1  -1   77.44    3.78
  -1   1  -1   67.52    3.97
  -1   1  -1   83.67    3.93
  -1   1  -1   73.75    3.74
  -1  -1   2    5.19    0.47
  -1  -1   2    4.71    0.37
  -1  -1   2    4.94    0.36
  -1  -1   2    5.13    0.51
  -1  -1   2    5.36    0.44
  -1  -1   2    4.80    0.47
  -1  -1   2    4.63    0.42
  -1  -1   2    4.84    0.43
   1   1  -2    5.05    0.45
   1   1  -2    4.90    0.35
   1   1  -2    4.75    0.37
   1   1  -2    4.52    0.45
   1   1  -2    4.64    0.44
   1   1  -2    4.74    0.47
  -3  -1   3    7.58    0.78
  -3  -1   3    8.93    0.75
  -3  -1   3    8.10    0.76
  -3  -1   3    8.60    0.67
  -3  -1   3    8.88    0.81
  -3  -1   3    8.54    0.70
  -3  -1   3    9.28    0.81
  -3  -1   3    8.89    0.94
   3   1  -3    8.37    0.68
   3   1  -3    7.54    0.78
   3   1  -3    9.11    0.84
   3   1  -3    7.85    0.79
   3   1  -3    9.34    0.86
   3   1  -3    8.41    0.81
   3   1  -3    8.90    0.67
   3   1  -3    8.97    0.78
  -5  -1   4    4.34    0.87
  -5  -1   4    4.53    0.83
  -5  -1   4    5.19    0.93
  -5  -1   4    4.38    0.97
  -5  -1   4    4.67    0.58
  -5  -1   4    4.33    0.63
   5   1  -4    4.50    0.76
   5   1  -4    6.08    1.08
   5   1  -4    5.04    0.99
   5   1  -4    6.47    1.18
   5   1  -4    5.87    1.07
  -7  -1   5    0.36    0.56
  -7  -1   5   -0.19    0.61
  -7  -1   5    0.21    0.48
  -7  -1   5    0.77    0.53
   7   1  -5   -0.20    0.38
   7   1  -5    0.62    0.67
   7   1  -5   -0.80    0.63
   8   0  -3   -0.63    0.68
   8   0  -3   -0.19    0.59
   8   0  -3    0.28    0.54
   8   0  -3    1.74    0.74
  -8   0   3   -0.04    0.54
  -8   0   3   -0.24    0.42
  -8   0   3   -0.03    0.48
  -8   0   3    0.69    0.76
  -8   0   3   -0.91    0.41
   6   0  -2    5.18    1.12
   6   0  -2    5.92    1.17
   6   0  -2    6.06    1.11
   6   0  -2    5.49    0.95
  -6   0   2    4.74    0.84
  -6   0   2    5.17    1.05
  -6   0   2    5.08    1.21
  -6   0   2    3.88    0.57
  -6   0   2    5.35    1.06
  -6   0   2    5.22    0.90
  -6   0   2    4.57    0.59
   4   0  -1    3.99    0.44
   4   0  -1    5.26    0.84
   4   0  -1    4.27    0.71
   4   0  -1    4.13    0.76
   4   0  -1    3.88    0.67
   4   0  -1    4.85    0.62
   4   0  -1    3.49    0.50
  -4   0   1    2.90    0.40
  -4   0   1    4.09    0.56
  -4   0   1    3.18    0.44
  -4   0   1    4.21    0.73
  -4   0   1    3.60    0.51
  -4   0   1    5.04    0.66
  -4   0   1    3.06    0.40
  -4   0   1    4.03    0.73
  -4   0   1    4.39    0.72
   2   0   0    7.27    0.52
   2   0   0    7.74    0.62
   2   0   0    7.36    0.56
   2   0   0    7.54    0.60
   2   0   0    7.01    0.51
   2   0   0    7.05    0.61
   2   0   0    7.16    0.62
   2   0   0    7.19    0.59
  -2   0   0    7.66    0.61
  -2   0   0    6.91    0.57
  -2   0   0    7.38    0.51
  -2   0   0    6.36    0.60
  -2   0   0    7.38    0.56
  -2   0   0    7.14    0.59
  -2   0   0    6.81    0.60
  -2   0   0    7.09    0.52
  -2   0   2   49.06    2.67
  -2   0   2   49.26    2.62
  -2   0   2   48.24    2.66
  -2   0   2   47.79    2.69
  -2   0   2   48.72    2.68
  -2   0   2   50.77    2.71
  -2   0   2   48.23    2.67
   2   0  -2   46.81    2.60
   2   0  -2   51.35    2.70
   2   0  -2   49.50    2.64
   2   0  -2   51.10    2.69
   2   0  -2   50.08    2.70
   2   0  -2   49.43    2.71
   2   0  -2   48.07    2.59
   2   0  -2   46.77    2.65
  -4   0   3   50.52    3.00
  -4   0   3   50.25    2.84
  -4   0   3   53.32    2.88
  -4   0   3   49.92    3.10
  -4   0   3   53.38    3.12
  -4   0   3   53.18    3.08
  -4   0   3   49.12    3.05
   4   0  -3   51.30    3.12
   4   0  -3   51.48    3.09
   4   0  -3   58.25    3.31
   4   0  -3   52.20    3.08
   4   0  -3   51.48    2.98
   4   0  -3   48.70    3.07
   4   0  -3   51.87    3.04
  -6   0   4    3.08    0.59
  -6   0   4    3.03    0.84
  -6   0   4    3.06    0.75
  -6   0   4    3.34    0.80
  -6   0   4    3.23    0.59
  -6   0   4    3.23    0.92
   6   0  -4    2.41    0.78
   6   0  -4    2.62    0.82
   6   0  -4    3.35    0.92
  -8   0   5    0.31    0.68
  -8   0   5   -0.16    0.64
  -8   0   5   -0.15    0.49
  -8   0   5   -0.93    0.63
  -8   0   5   -0.67    0.57
   8   0  -5   -0.04    0.68
   8   0  -5    0.50    0.72
   8   0  -5   -0.30    0.65
   7   1  -3    2.35    0.74
   7   1  -3    2.43    0.68
   7   1  -3    4.38    1.13
   7   1  -3    2.44    0.73
   7   1  -3    3.18    0.86
  -7  -1   3    1.96    0.61
  -7  -1   3    2.08    0.87
  -7  -1   3    2.13    0.66
   5   1  -2    0.80    0.37
   5   1  -2    0.91    0.52
   5   1  -2    0.72    0.39
   5   1  -2    0.91    0.39
   5   1  -2    0.79    0.52
   5   1  -2    1.00    0.57
  -5  -1   2    0.75    0.34
  -5  -1   2    0.89    0.39
  -5  -1   2    0.35    0.33
  -5  -1   2    1.05    0.37
  -5  -1   2    0.21    0.37
  -5  -1   2    0.24    0.37
  -5  -1   2    0.48    0.41
  -5  -1   2    0.29    0.51
   3   1  -1   33.74    2.07
   3   1  -1   39.02    2.33
   3   1  -1   33.96    2.11
   3   1  -1   38.13    2.32
   3   1  -1   31.99    2.16
   3   1  -1   39.07    2.21
   3   1  -1   37.19    2.13
  -3  -1   1   38.83    2.31
  -3  -1   1   36.96    2.13
  -3  -1   1   39.73    2.11
  -3  -1   1   39.93    2.21
  -3  -1   1   40.16    2.32
  -3  -1   1   38.05    2.19
  -3  -1   1   39.84    2.22
  -3  -1   1   39.18    2.33
   1   1   0  148.96    7.47
   1   1   0  140.23    7.46
   1   1   0  151.01    7.44
   1   1   0  149.10    7.34
   1   1   0  149.92    7.47
   1   1   0  148.67    7.36
   1   1   0  157.39    7.50
   1   1   0  146.90    7.34
  -1  -1   0  155.27    7.57
  -1  -1   0  136.15    7.48
  -1  -1   0  143.09    7.46
  -1  -1   0  150.91    7.36
  -1  -1   0  148.60    7.34
  -1  -1   0  151.57    7.47
  -1  -1   0  151.67    7.48
  -1   1   1  186.82    8.85
  -1   1   1  193.73    8.84
  -1   1   1  175.98    8.79
   1  -1  -1  170.58    8.80
   1  -1  -1  179.30    8.81
   1  -1  -1  170.31    8.73
   1  -1  -1  164.69    8.78
  -3   1   2   13.24    0.98
  -3   1   2   11.73    0.93
  -3   1   2   13.18    0.92
  -3   1   2   11.83    0.73
  -3   1   2   12.04    0.97
  -3   1   2   12.58    0.94
  -3   1   2   12.93    1.11
  -3   1   2   12.58    0.92
   3  -1  -2   12.45    0.92
   3  -1  -2   11.91    0.92
   3  -1  -2   10.56    0.92
   3  -1  -2   12.68    0.75
   3  -1  -2   11.61    0.94
   3  -1  -2   11.87    0.88
   3  -1  -2   12.64    0.93
   3  -1  -2   12.52    0.97
  -5   1   3   20.86    1.62
  -5   1   3   20.24    1.50
  -5   1   3   20.36    1.61
  -5   1   3   20.96    1.24
  -5   1   3   20.65    1.54
  -5   1   3   18.54    1.21
   5  -1  -3   21.30    1.58
   5  -1  -3   19.33    1.54
   5  -1  -3   21.86    1.62
   5  -1  -3   19.62    1.63
   5  -1  -3   19.94    1.53
   5  -1  -3   20.74    1.54
  -7   1   4    0.41    0.52
  -7   1   4    1.56    0.64
  -7   1   4    0.49    0.30
  -7   1   4    0.21    0.53
  -7   1   4    0.21    0.28
  -7   1   4    1.16    0.59
   7  -1  -4    0.61    0.52
   7  -1  -4    1.85    0.60
   7  -1  -4   -0.61    0.42
  -9   1   5    0.45    0.88
  -9   1   5    2.32    1.10
  -9   1   5    0.00    0.82
  -9   1   5    1.51    0.91
   9  -1  -5    1.50    0.90
   9  -1  -5    2.33    0.82
   8   2  -4   -0.25    0.57
   8   2  -4    0.78    0.77
   8   2  -4   -0.20    0.59
   8   2  -4   -1.63    0.81
  -8  -2   4    0.06    0.75
  -8  -2   4   -0.90    0.80
  -8  -2   4    1.68    0.78
   6   2  -3    0.79    0.68
   6   2  -3    1.53    0.67
   6   2  -3    1.08    0.36
   6   2  -3    0.41    0.39
   6   2  -3    0.16    0.43
   6   2  -3    1.36    0.59
  -6  -2   3    0.45    0.48
  -6  -2   3    0.66    0.35
  -6  -2   3    0.73    0.65
   4   2  -2   12.65    0.91
   4   2  -2   13.46    1.17
   4   2  -2   12.68    0.94
   4   2  -2   12.79    1.22
   4   2  -2   14.31    1.24
   4   2  -2   13.42    0.94
   4   2  -2   12.51    0.90
   4   2  -2   15.00    1.30
  -4  -2   2   13.46    1.14
  -4  -2   2   13.38    1.15
  -4  -2   2   13.33    1.29
  -4  -2   2   13.40    0.90
  -4  -2   2   13.83    1.14
  -4  -2   2   12.38    1.18
   2   2  -1   -0.14    0.18
   2   2  -1   -0.13    0.16
   2   2  -1    0.08    0.09
   2   2  -1    0.13    0.09
   2   2  -1   -0.12    0.15
   2   2  -1    0.00    0.07
   2   2  -1   -0.13    0.17
   2   2  -1    0.16    0.22
   2   2  -1    0.15    0.09
   2   2  -1   -0.03    0.24
  -2  -2   1    0.04    0.21
  -2  -2   1    0.07    0.17
  -2  -2   1   -0.01    0.14
  -2  -2   1   -0.03    0.22
  -2  -2   1    0.13    0.20
  -2  -2   1    0.01    0.21
  -2  -2   1   -0.09    0.14
   0   2   0   26.49    1.58
   0   2   0   27.48    1.68
   0   2   0   32.26    1.63
   0   2   0   29.56    1.61
   0   2   0   31.53    1.71
   0   2   0   31.56    1.71
   0  -2   0   28.73    1.59
   0  -2   0   28.02    1.57
   0  -2   0   31.38    1.71
   0  -2   0   30.51    1.71
   0  -2   0   30.33    1.60
   0  -2   0   30.14    1.59
   0  -2   0   29.55    1.69
  -2   2   1  176.42    8.49
  -2   2   1  175.96    8.47
  -2   2   1  166.04    8.34
  -2   2   1  162.03    8.33
  -2   2   1  171.44    8.54
  -2   2   1  181.68    8.62
  -2   2   1  164.51    8.48
  -2   2   1  176.55    8.56
   2  -2  -1  168.22    8.42
   2  -2  -1  169.33    8.43
   2  -2  -1  168.36    8.34
   2  -2  -1  157.50    8.48
   2  -2  -1  169.72    8.54
   2  -2  -1  155.50    8.56
   2  -2  -1  168.37    8.35
  -4   2   2    2.18    0.53
  -4   2   2    2.28    0.56
  -4   2   2    2.58    0.54
  -4   2   2    1.49    0.45
  -4   2   2    1.95    0.57
  -4   2   2    2.53    0.52
  -4   2   2    3.08    0.56
   4  -2  -2    1.99    0.54
   4  -2  -2    2.47    0.49
   4  -2  -2    2.01    0.48
   4  -2  -2    2.59    0.53
   4  -2  -2    2.40    0.51
  -6   2   3   81.65    4.69
  -6   2   3   88.36    4.80
  -6   2   3   79.12    4.76
  -6   2   3   75.44    4.67
   6  -2  -3   75.54    4.71
   6  -2  -3   80.37    4.76
   6  -2  -3   79.22    4.64
  -8   2   4    1.44    0.72
  -8   2   4    0.60    0.65
  -8   2   4    0.99    0.80
  -8   2   4    1.05    0.59
   8  -2  -4    0.70    0.61
   8  -2  -4    1.15    0.67
   8  -2  -4    0.51    0.56
   7   3  -4    0.71    0.83
   7   3  -4    1.22    0.84
   7   3  -4    0.22    0.38
   7   3  -4    0.49    0.42
   7   3  -4    0.16    0.58
  -7  -3   4    1.08    0.62
  -7  -3   4   -0.09    0.70
  -7  -3   4    0.91    0.71
   5   3  -3    6.17    0.58
   5   3  -3    8.51    1.13
   5   3  -3    6.03    1.15
   5   3  -3    7.44    0.58
   5   3  -3    7.41    0.95
   5   3  -3    8.76    1.10
   5   3  -3    5.82    0.53
  -5  -3   3    7.60    0.93
  -5  -3   3    6.65    0.92
  -5  -3   3    7.57    1.07
   3   3  -2   18.05    1.41
   3   3  -2   17.10    1.42
   3   3  -2   17.26    0.90
   3   3  -2   16.66    1.34
   3   3  -2   16.16    1.35
   3   3  -2   17.97    1.41
  -3  -3   2   18.95    1.50
  -3  -3   2   15.91    1.32
  -3  -3   2   16.82    1.46
  -3  -3   2   18.31    1.35
  -3  -3   2   17.73    1.39
  -3  -3   2   16.38    1.35
   1   3  -1   43.21    2.42
   1   3  -1   41.64    2.52
   1   3  -1   42.48    2.13
   1   3  -1   44.22    2.51
   1   3  -1   42.47    2.13
   1   3  -1   41.91    2.52
   1   3  -1   45.24    2.55
  -1  -3   1   43.25    2.54
  -1  -3   1   42.45    2.13
  -1  -3   1   41.50    2.37
  -1  -3   1   42.82    2.49
  -1  -3   1   44.24    2.51
  -1  -3   1   42.91    2.12
  -1  -3   1   40.62    2.35
  -1  -3   1   42.06    2.52
  -1  -3   1   42.12    2.51
  -1   3   0   27.39    1.79
  -1   3   0   30.13    1.61
  -1   3   0   30.67    1.75
  -1   3   0   30.14    1.80
  -1   3   0   31.84    1.79
  -1   3   0   31.83    1.80
  -1   3   0   30.32    1.62
   1  -3   0   29.78    1.74
   1  -3   0   31.27    1.79
   1  -3   0   28.52    1.69
   1  -3   0   30.40    1.79
   1  -3   0   29.01    1.77
   1  -3   0   31.11    1.81
   1  -3   0   35.75    1.82
   1  -3   0   29.77    1.81
   1  -3   0   31.02    1.82
  -3   3   1   57.83    3.18
  -3   3   1   73.01    3.55
  -3   3   1   62.47    3.38
  -3   3   1   61.21    3.40
  -3   3   1   68.47    3.40
   3  -3  -1   63.05    3.28
   3  -3  -1   58.16    3.18
   3  -3  -1   59.43    3.27
   3  -3  -1   60.64    3.41
   3  -3  -1   64.97    3.19
   3  -3  -1   60.14    3.29
   3  -3  -1   61.59    3.57
   3  -3  -1   65.57    3.52
  -5   3   2    2.03    0.49
  -5   3   2    3.11    0.77
  -5   3   2    1.55    0.58
  -5   3   2    2.76    0.61
  -5   3   2    2.88    0.61
   5  -3  -2    3.49    0.83
   5  -3  -2    2.30    0.56
   5  -3  -2    3.42    0.62
   5  -3  -2    2.71    0.56
  -7   3   3   10.05    1.27
  -7   3   3   10.12    1.14
  -7   3   3   11.00    1.36
  -7   3   3   10.00    1.54
  -7   3   3    9.95    1.19
   7  -3  -3   10.07    1.27
   7  -3  -3    8.02    1.01
   7  -3  -3    9.75    1.04
  -9   3   4    0.42    0.67
  -9   3   4   -0.06    0.80
  -9   3   4   -0.12    0.73
  -9   3   4    0.57    0.90
   9  -3  -4    0.71    0.72
   9  -3  -4    1.22    0.96
   6   4  -4    1.47    0.78
   6   4  -4    0.68    0.53
  -6  -4   4    0.75    0.70
  -6  -4   4    0.49    0.57
  -6  -4   4    0.24    0.63
   4   4  -3    1.33    0.62
   4   4  -3    0.79    0.50
   4   4  -3    2.54    0.79
   4   4  -3    2.82    0.63
  -4  -4   3    1.98    0.47
  -4  -4   3    2.25    0.81
  -4  -4   3    2.13    0.65
   2   4  -2    0.03    0.32
   2   4  -2    0.12    0.25
   2   4  -2    0.05    0.28
  -2  -4   2    0.86    0.32
  -2  -4   2    0.18    0.40
  -2  -4   2   -0.01    0.21
  -2  -4   2   -0.33    0.29
   0   4  -1  202.28    9.96
   0   4  -1  208.96   10.24
   0   4  -1  193.03   10.11
   0   4  -1  201.82    9.91
   0   4  -1  207.74   10.24
   0   4  -1  189.02   10.16
   0   4  -1  203.54    9.96
   0  -4   1  200.11    9.81
   0  -4   1  186.53    9.88
   0  -4   1  194.52   10.16
   0  -4   1  206.78   10.25
   0  -4   1  200.61   10.19
   0  -4   1  193.78    9.81
   0  -4   1  197.01   10.13
   0  -4   1  194.26    9.92
   0  -4   1  200.35   10.21
  -2   4   0    4.84    0.50
  -2   4   0    3.90    0.51
  -2   4   0    3.36    0.33
  -2   4   0    3.88    0.39
  -2   4   0    3.07    0.47
  -2   4   0    4.67    0.72
  -2   4   0    3.64    0.33
   2  -4   0    4.27    0.54
   2  -4   0    3.87    0.42
   2  -4   0    3.33    0.44
   2  -4   0    4.45    0.51
   2  -4   0    4.77    0.56
   2  -4   0    4.18    0.41
   2  -4   0    4.57    0.70
   2  -4   0    4.07    0.70
   2  -4   0    3.22    0.43
   2  -4   0    5.17    0.60
  -4   4   1    5.63    0.60
  -4   4   1    4.24    0.54
  -4   4   1    4.66    0.59
  -4   4   1    6.47    1.06
  -4   4   1    4.76    0.64
  -4   4   1    5.61    0.72
  -4   4   1    4.81    0.50
   4  -4  -1    4.95    0.38
   4  -4  -1    5.06    0.48
   4  -4  -1    4.46    0.49
   4  -4  -1    4.93    0.37
   4  -4  -1    4.31    0.44
   4  -4  -1    4.60    0.57
   4  -4  -1    6.13    0.71
   4  -4  -1    6.10    1.00
  -6   4   2    0.04    0.42
  -6   4   2   -0.35    0.32
  -6   4   2    0.22    0.58
  -6   4   2    0.47    0.38
  -6   4   2   -0.14    0.35
  -6   4   2   -0.12    0.37
   6  -4  -2   -0.25    0.30
   6  -4  -2   -0.09    0.52
   6  -4  -2   -0.46    0.28
   6  -4  -2   -0.16    0.35
  -8   4   3    2.37    0.95
  -8   4   3    3.13    0.94
  -8   4   3    3.06    1.13
  -8   4   3    2.86    1.08
   8  -4  -3    3.83    1.04
   8  -4  -3    2.84    0.77
   5   5  -4    0.99    0.73
   5   5  -4    0.46    0.63
   5   5  -4    0.14    0.98
   5   5  -4    0.66    0.71
  -5  -5   4    0.37    0.51
  -5  -5   4   -0.02    0.61
  -5  -5   4   -0.03    0.67
   3   5  -3   -0.14    0.31
   3   5  -3    0.12    0.34
   3   5  -3    0.89    0.43
   3   5  -3   -0.20    0.41
  -3  -5   3    0.40    0.54
  -3  -5   3    0.32    0.40
  -3  -5   3    0.60    0.50
   1   5  -2    0.23    0.26
   1   5  -2    0.66    0.43
   1   5  -2    0.35    0.30
   1   5  -2    0.04    0.33
  -1  -5   2    0.27    0.11
  -1  -5   2    0.17    0.19
  -1  -5   2    1.96    0.67
  -1  -5   2    0.48    0.43
  -1  -5   2    0.40    0.11
  -1  -5   2    0.11    0.07
  -1  -5   2    0.14    0.07
  -1   5  -1    0.34    0.29
  -1   5  -1    0.40    0.18
  -1   5  -1    0.36    0.21
  -1   5  -1    0.07    0.24
  -1   5  -1    0.66    0.39
  -1   5  -1    0.27    0.20
  -1   5  -1    0.13    0.16
  -1   5  -1   -0.16    0.25
   1  -5   1    0.04    0.24
   1  -5   1   -0.21    0.28
   1  -5   1    0.88    0.43
   1  -5   1    0.19    0.31
   1  -5   1    0.25    0.27
   1  -5   1   -0.38    0.29
   1  -5   1    0.23    0.23
   1  -5   1    0.48    0.31
   1  -5   1    0.29    0.30
  -3   5   0    7.25    0.57
  -3   5   0    9.51    0.88
  -3   5   0    6.94    0.61
  -3   5   0    6.97    0.56
   3  -5   0    5.83    0.57
   3  -5   0    6.32    0.59
   3  -5   0    6.22    0.74
   3  -5   0    5.47    0.60
   3  -5   0    6.06    0.73
   3  -5   0    6.43    0.70
   3  -5   0    6.33    0.77
   3  -5   0    5.33    0.61
  -5   5   1    2.81    0.70
  -5   5   1    3.18    0.60
  -5   5   1    2.55    0.62
  -5   5   1    2.23    0.56
  -5   5   1    2.32    0.68
  -5   5   1    2.79    0.59
   5  -5  -1    2.26    0.32
   5  -5  -1    2.51    0.21
   5  -5  -1    3.30    0.65
   5  -5  -1    2.98    0.51
   5  -5  -1    2.70    0.76
   5  -5  -1    1.88    0.20
  -7   5   2   -0.06    0.46
  -7   5   2   -0.40    0.41
  -7   5   2    0.01    0.42
  -7   5   2   -0.08    0.49
  -7   5   2   -0.44    0.43
   7  -5  -2    0.09    0.52
   7  -5  -2   -0.64    0.34
   7  -5  -2    0.02    0.34
   7  -5  -2   -0.68    0.39
  -9   5   3    0.64    0.92
  -9   5   3   -0.04    0.86
  -9   5   3   -0.84    0.69
   9  -5  -3    0.34    0.94
   9  -5  -3   -1.14    0.59
   6   6  -5    1.62    1.00
   6   6  -5    2.42    1.07
  -6  -6   5   -0.20    1.02
  -6  -6   5    1.25    1.15
   4   6  -4    0.55    0.62
   4   6  -4    0.10    0.63
   4   6  -4   -0.19    0.58
  -4  -6   4    1.49    0.57
  -4  -6   4   -0.23    0.70
  -4  -6   4    0.64    0.71
   2   6  -3   28.24    2.23
   2   6  -3   31.23    2.10
   2   6  -3   28.35    2.23
  -2  -6   3   26.88    2.22
  -2  -6   3   28.49    1.85
  -2  -6   3   30.73    2.34
   0   6  -2    0.56    0.49
   0   6  -2    0.29    0.20
   0   6  -2    0.31    0.39
   0   6  -2   -0.02    0.21
   0   6  -2    0.13    0.20
   0   6  -2    0.28    0.21
   0  -6   2    0.37    0.21
   0  -6   2    0.47    0.37
   0  -6   2   -0.26    0.22
   0  -6   2   -0.27    0.37
  -2   6  -1   10.93    0.77
  -2   6  -1    9.92    1.19
   2  -6   1   12.07    1.33
   2  -6   1   12.61    1.10
   2  -6   1   12.48    1.00
   2  -6   1   12.14    1.02
   2  -6   1   13.09    1.11
   2  -6   1   12.86    1.12
  -4   6   0    1.24    0.53
  -4   6   0    1.09    0.54
  -4   6   0    0.85    0.30
  -4   6   0    1.08    0.35
  -4   6   0    1.20    0.38
  -4   6   0    1.86    0.59
   4  -6   0    1.26    0.38
   4  -6   0    0.92    0.52
   4  -6   0    1.15    0.37
   4  -6   0    1.40    0.41
   4  -6   0    1.60    0.54
   4  -6   0    1.10    0.50
  -6   6   1    6.07    1.19
  -6   6   1    5.40    0.74
  -6   6   1    4.36    0.65
  -6   6   1    5.12    0.83
  -6   6   1    6.95    1.31
   6  -6  -1    5.35    0.81
   6  -6  -1    5.83    1.06
   6  -6  -1    5.16    1.21
  -8   6   2    0.90    0.60
  -8   6   2    1.21    0.86
  -8   6   2    1.09    0.73
  -8   6   2    1.80    0.72
  -8   6   2    1.96    0.85
   8  -6  -2    1.13    0.63
   8  -6  -2    0.78    0.59
   5   7  -5    0.42    0.93
   5   7  -5    2.18    0.93
   5   7  -5    2.18    1.07
  -5  -7   5   -0.23    0.65
  -5  -7   5    0.27    0.83
   3   7  -4    1.09    0.83
   3   7  -4    2.17    0.75
   3   7  -4    1.36    0.71
   3   7  -4    1.22    0.57
  -3  -7   4    0.87    0.84
  -3  -7   4    0.46    0.56
  -3  -7   4    2.28    1.06
   1   7  -3   -0.03    0.28
   1   7  -3    0.95    0.42
   1   7  -3    0.55    0.56
   1   7  -3    1.89    0.55
  -1  -7   3    0.35    0.44
  -1  -7   3    0.47    0.36
  -1   7  -2    1.93    0.68
  -1   7  -2    2.61    0.61
  -1   7  -2    1.40    0.59
  -1   7  -2    2.89    0.50
  -1   7  -2    2.12    0.44
  -1   7  -2    2.76    0.57
   1  -7   2    2.11    0.63
   1  -7   2    2.69    0.73
   1  -7   2    2.54    0.53
   1  -7   2    2.97    0.83
  -3   7  -1   13.02    1.28
  -3   7  -1   13.00    0.86
  -3   7  -1   14.14    1.31
  -3   7  -1   12.45    0.86
  -3   7  -1   13.19    1.24
   3  -7   1   11.12    1.19
   3  -7   1   11.68    1.13
   3  -7   1   11.98    1.23
   3  -7   1   12.67    1.09
   3  -7   1   13.94    1.30
  -5   7   0   -0.07    0.26
  -5   7   0    0.32    0.44
  -5   7   0   -0.20    0.30
  -5   7   0    0.07    0.26
  -5   7   0   -0.36    0.33
   5  -7   0   -0.11    0.31
   5  -7   0    0.40    0.32
   5  -7   0   -0.07    0.62
   5  -7   0   -0.11    0.29
   5  -7   0   -0.20    0.47
  -7   7   1   11.13    1.49
  -7   7   1   10.41    1.10
  -7   7   1    9.28    0.99
  -7   7   1    8.78    1.56
   7  -7  -1    9.22    1.04
   7  -7  -1   14.44    1.48
   7  -7  -1    6.46    0.93
  -9   7   2    0.17    0.79
  -9   7   2   -1.04    0.84
  -9   7   2    0.96    0.75
  -9   7   2    1.06    0.69
   9  -7  -2    0.96    1.00
   9  -7  -2   -0.20    0.61
   4   8  -5   -0.39    0.72
   4   8  -5    0.31    0.68
   4   8  -5    1.13    0.77
  -4  -8   5   -0.03    0.73
  -4  -8   5    0.19    0.72
   2   8  -4   12.82    1.54
   2   8  -4   11.55    1.41
   2   8  -4    9.43    1.23
   2   8  -4   11.82    1.27
  -2  -8   4   12.68    1.58
  -2  -8   4   13.39    1.58
   0   8  -3    4.86    0.84
   0   8  -3    2.91    1.05
   0   8  -3    4.42    0.97
   0  -8   3    4.74    1.02
   0  -8   3    4.61    0.71
   0  -8   3    4.37    0.66
   0  -8   3    4.21    0.64
   0  -8   3    6.41    1.34
   0  -8   3    4.86    1.05
   0  -8   3    4.74    0.54
  -2   8  -2    1.30    0.70
  -2   8  -2    0.51    0.35
  -2   8  -2    0.77    0.46
  -2   8  -2    0.77    0.32
   2  -8   2   -0.09    0.48
   2  -8   2    2.04    0.69
   2  -8   2    0.92    0.68
  -4   8  -1   15.54    1.66
  -4   8  -1   15.00    1.08
  -4   8  -1   15.47    1.06
  -4   8  -1   14.36    1.50
   4  -8   1   14.82    1.28
   4  -8   1   15.77    1.55
   4  -8   1   19.69    1.59
   4  -8   1   13.37    1.22
  -6   8   0    0.48    0.46
  -6   8   0    0.50    0.42
  -6   8   0    0.16    0.50
  -6   8   0    1.39    0.51
  -6   8   0    0.88    0.61
   6  -8   0    1.40    0.43
   6  -8   0    0.68    0.39
   6  -8   0    1.39    0.59
   6  -8   0    1.00    0.49
   6  -8   0    0.84    0.53
  -8   8   1    1.01    0.84
  -8   8   1    0.55    1.00
  -8   8   1    0.50    0.57
   8  -8  -1   -0.80    0.58
   8  -8  -1    0.64    0.71
   3   9  -5    0.35    0.77
   3   9  -5   -0.55    0.50
  -3  -9   5    0.80    1.03
   1   9  -4    8.44    1.26
   1   9  -4    7.29    1.42
   1   9  -4    8.64    1.63
   1   9  -4    6.52    0.97
  -1  -9   4    8.51    1.70
  -1  -9   4    6.70    1.46
  -1  -9   4   10.47    1.82
  -1   9  -3    1.02    0.46
  -1   9  -3    0.50    0.63
  -1   9  -3    1.19    0.83
  -1   9  -3    0.61    0.39
   1  -9   3    0.35    0.52
   1  -9   3    1.54    0.93
   1  -9   3    0.88    0.48
   1  -9   3    0.60    0.46
   1  -9   3   -0.29    0.64
   1  -9   3   -0.01    0.54
  -3   9  -2    2.64    0.78
  -3   9  -2    1.95    0.83
  -3   9  -2    3.40    0.57
  -3   9  -2    3.05    0.88
  -3   9  -2    2.04    0.41
   3  -9   2    2.01    0.68
   3  -9   2    4.01    0.99
   3  -9   2    2.36    0.94
   3  -9   2    2.53    0.84
  -5   9  -1    0.31    0.63
  -5   9  -1    0.46    0.30
  -5   9  -1   -0.13    0.66
   5  -9   1    0.71    0.68
   5  -9   1   -0.25    0.49
   5  -9   1    0.46    0.49
  -7   9   0    2.32    0.82
  -7   9   0    0.70    0.91
  -7   9   0    1.78    1.11
  -7   9   0    0.81    0.49
   7  -9   0    0.40    0.33
   7  -9   0    1.35    0.69
   7  -9   0    2.82    1.06
   2  10  -5   -1.22    0.45
   2  10  -5    0.27    0.70
  -2 -10   5    2.56    1.15
  -2 -10   5   -0.51    1.10
  -2 -10   5    1.46    1.19
   0  10  -4    2.64    0.71
   0  10  -4    2.27    1.12
   0  10  -4    2.41    0.94
   0  10  -4    1.60    0.70
   0 -10   4    4.73    1.37
   0 -10   4    4.01    1.24
   0 -10   4    3.78    1.16
  -2  10  -3    0.54    0.61
  -2  10  -3    1.86    0.68
  -2  10  -3    1.31    0.41
  -2  10  -3    0.95    0.76
  -2  10  -3    0.70    0.47
   2 -10   3    2.79    1.05
   2 -10   3    1.76    0.72
   2 -10   3    1.53    0.83
   2 -10   3    1.90    0.86
   2 -10   3    1.29    0.64
   2 -10   3    2.19    0.89
  -4  10  -2    0.97    0.71
  -4  10  -2    1.09    0.39
  -4  10  -2    1.60    0.40
  -4  10  -2    1.32    0.71
   4 -10   2    1.54    0.75
   4 -10   2    1.40    0.74
   4 -10   2    1.14    0.65
   4 -10   2    1.51    0.60
   4 -10   2    0.74    0.83
  -6  10  -1    0.11    0.47
  -6  10  -1   -0.13    0.77
  -6  10  -1   -0.07    0.30
  -6  10  -1    0.19    0.69
   6 -10   1   -0.89    0.45
   6 -10   1   -0.16    0.75
   6 -10   1   -0.09    0.65
   6 -10   1   -0.45    0.49
  -1  11  -4   -0.09    0.59
  -1  11  -4    0.87    0.49
  -1  11  -4    0.83    0.96
  -1  11  -4    1.13    0.96
   1 -11   4    1.16    0.96
   1 -11   4    3.60    1.26
   1 -11   4    0.08    0.56
   1 -11   4   -0.76    0.70
   1 -11   4    0.67    1.13
  -3  11  -3    0.68    0.46
  -3  11  -3    1.29    0.91
  -3  11  -3    0.69    0.40
  -3  11  -3   -0.47    0.60
  -3  11  -3    1.80    0.72
   3 -11   3    0.44    0.68
   3 -11   3    0.24    0.60
   3 -11   3    0.61    0.75
   3 -11   3   -1.09    0.79
   3 -11   3    2.54    1.17
   3 -11   3    0.41    0.56
  -5  11  -2    0.23    0.45
  -5  11  -2    0.97    0.81
  -5  11  -2   -0.88    0.61
  -5  11  -2    0.13    0.31
   5 -11   2    1.09    0.77
   5 -11   2    0.41    0.72
   5 -11   2   -0.77    0.47
   5 -11   2    1.08    0.66
   5 -11   2    1.87    0.83
   4 -11   5    8.16    1.52
   4 -11   5    5.46    1.23
   4 -11   5    6.92    1.41
   4 -11   5    8.23    1.55
   4 -11   5    6.71    1.53
   4 -11   5    7.14    1.47
  -4  11  -5    7.67    1.42
   2 -11   6    0.31    0.72
   2 -11   6   -0.28    0.85
   2 -11   6   -1.18    0.72
   2 -11   6    0.31    0.87
   2 -11   6    3.53    1.31
   2 -11   6    0.48    0.84
  -2  11  -6   -0.45    0.80
  -2  11  -6    0.08    0.45
  -2  11  -6   -0.04    0.75
  -2  11  -6    0.32    0.42
   7 -10   3    3.33    1.21
   7 -10   3    2.13    0.78
   7 -10   3    1.30    1.14
  -7  10  -3    2.12    0.89
  -7  10  -3    2.90    1.16
   5 -10   4    0.14    0.72
   5 -10   4   -0.27    0.65
   5 -10   4   -0.13    0.51
   5 -10   4    0.46    0.72
   5 -10   4   -0.26    0.59
   5 -10   4   -0.65    0.59
  -5  10  -4   -0.25    0.20
  -5  10  -4   -0.58    0.62
  -5  10  -4   -0.02    0.20
  -5  10  -4    0.15    0.69
   3 -10   5    1.29    0.73
   3 -10   5    1.73    0.76
   3 -10   5    1.15    0.76
   3 -10   5    0.16    0.62
   3 -10   5    1.46    0.90
   3 -10   5    1.99    0.82
  -3  10  -5    1.44    0.66
  -3  10  -5    0.87    0.22
  -3  10  -5    0.72    0.47
   1 -10   6    3.55    0.83
   1 -10   6    3.62    0.86
   1 -10   6    4.76    1.30
   1 -10   6    2.96    1.05
   1 -10   6    2.86    1.07
  -1  10  -6    3.94    1.03
  -1  10  -6    5.47    1.30
  -1  10  -6    3.73    0.72
  -1  10  -6    3.28    0.72
  -1 -10   7    0.26    0.75
  -1 -10   7    0.49    0.86
   1  10  -7    0.66    0.83
   1  10  -7    0.50    0.60
   8  -9   2    0.76    0.95
   8  -9   2    0.68    0.99
   8  -9   2    1.46    1.16
   8  -9   2    0.56    0.61
  -8   9  -2    0.69    1.01
  -8   9  -2    0.41    0.81
  -8   9  -2   -0.08    0.84
  -8   9  -2    0.69    0.58
   6  -9   3    0.11    0.57
   6  -9   3    0.39    0.64
   6  -9   3   -0.06    0.45
   6  -9   3    0.21    0.80
   6  -9   3   -0.28    0.43
   6  -9   3   -1.38    0.58
  -6   9  -3    0.31    0.64
  -6   9  -3    0.04    0.29
  -6   9  -3    0.34    0.63
  -6   9  -3    0.67    0.77
  -6   9  -3   -0.14    0.40
   4  -9   4    0.91    0.74
   4  -9   4    2.48    0.84
   4  -9   4    2.49    0.90
   4  -9   4    2.54    0.91
   4  -9   4    2.00    0.71
   4  -9   4    1.43    0.72
  -4   9  -4    1.55    0.19
  -4   9  -4    1.52    0.71
  -4   9  -4    1.10    0.62
  -4   9  -4    1.78    0.23
   2  -9   5   -0.27    0.55
   2  -9   5   -0.30    0.57
   2  -9   5    1.61    0.68
   2  -9   5    1.30    0.68
   2  -9   5   -0.35    0.50
  -2   9  -5    0.61    0.56
  -2   9  -5    0.21    0.21
  -2   9  -5    0.65    0.55
   0  -9   6    0.38    0.54
   0  -9   6    1.32    0.65
   0  -9   6    2.56    0.91
   0  -9   6    0.96    0.48
   0  -9   6    2.29    1.06
   0   9  -6    1.43    0.51
   0   9  -6    1.47    0.84
   0   9  -6    1.36    0.58
  -2  -9   7   -0.37    0.89
  -2  -9   7    0.41    1.02
   2   9  -7    0.33    0.75
   2   9  -7    0.83    0.76
   2   9  -7    0.03    0.54
   7  -8   2    0.74    0.92
   7  -8   2    1.48    0.87
   7  -8   2    0.54    0.29
   7  -8   2    0.09    0.46
  -7   8  -2    0.04    0.62
  -7   8  -2    0.74    0.75
  -7   8  -2    0.75    0.76
  -7   8  -2    1.02    0.69
  -7   8  -2    1.03    0.50
   5  -8   3    5.57    1.10
   5  -8   3    5.10    0.94
   5  -8   3    4.85    1.15
   5  -8   3    5.19    0.97
   5  -8   3    4.67    1.02
  -5   8  -3    3.54    0.97
  -5   8  -3    3.57    0.48
  -5   8  -3    4.55    0.53
  -5   8  -3    5.77    1.26
  -5   8  -3    5.71    1.31
   3  -8   4    1.29    0.51
   3  -8   4   -0.01    0.31
   3  -8   4    1.78    0.65
   3  -8   4    0.56    0.48
   3  -8   4    1.39    0.55
   3  -8   4    0.47    0.53
  -3   8  -4    0.24    0.46
  -3   8  -4    0.58    0.53
  -3   8  -4    0.07    0.48
  -3   8  -4   -0.05    0.42
  -3   8  -4    0.81    0.52
   1  -8   5    5.34    0.74
   1  -8   5    6.63    1.21
   1  -8   5    7.18    1.09
   1  -8   5    4.69    0.86
   1  -8   5    4.66    1.12
  -1   8  -5    5.79    1.05
  -1   8  -5    5.13    0.56
  -1   8  -5    4.92    0.56
  -1   8  -5    5.28    1.17
  -1   8  -5    4.13    1.08
  -1  -8   6    2.59    0.37
  -1  -8   6    2.38    1.00
  -1  -8   6    2.88    1.09
  -1  -8   6    3.21    0.38
   1   8  -6    3.14    0.84
   1   8  -6    3.34    0.98
   1   8  -6    3.24    0.76
   1   8  -6    2.96    0.73
  -3  -8   7   -0.27    0.60
  -3  -8   7   -1.15    0.76
   3   8  -7    0.20    0.57
   3   8  -7   -0.27    0.48
   3   8  -7   -0.02    0.81
   8  -7   1   -0.64    0.40
   8  -7   1    0.60    0.77
   8  -7   1    0.64    0.76
  -8   7  -1    0.04    0.47
  -8   7  -1    0.27    0.69
  -8   7  -1    0.93    1.02
  -8   7  -1    0.12    0.58
  -8   7  -1    0.92    0.77
   6  -7   2    0.51    0.60
   6  -7   2   -0.42    0.29
   6  -7   2   -0.08    0.47
   6  -7   2    0.67    0.46
   6  -7   2    0.36    0.37
  -6   7  -2    0.42    0.51
  -6   7  -2    0.59    0.49
  -6   7  -2    0.47    0.42
  -6   7  -2    0.38    0.51
   4  -7   3   27.09    2.20
   4  -7   3   27.44    2.06
   4  -7   3   25.69    1.91
   4  -7   3   26.56    1.97
  -4   7  -3   28.33    2.21
  -4   7  -3   25.31    1.50
  -4   7  -3   26.15    1.97
  -4   7  -3   27.18    1.95
  -4   7  -3   26.16    1.51
   2  -7   4    6.77    1.20
   2  -7   4    5.80    1.01
   2  -7   4    4.77    0.98
   2  -7   4    6.46    1.07
   2  -7   4    4.10    0.93
   2  -7   4    5.16    1.03
  -2   7  -4    6.16    1.05
  -2   7  -4    3.90    0.31
  -2   7  -4    4.86    1.02
  -2   7  -4    5.37    0.95
  -2   7  -4    5.78    0.93
   0  -7   5    0.68    0.41
   0  -7   5    1.46    0.66
   0  -7   5    0.43    0.32
   0  -7   5    0.41    0.40
   0  -7   5    0.95    0.39
   0   7  -5    0.75    0.37
   0   7  -5    1.64    0.67
   0   7  -5    0.90    0.50
   0   7  -5    0.09    0.36
   0   7  -5    1.13    0.37
  -2  -7   6    8.74    1.26
  -2  -7   6   10.57    1.44
   2   7  -6    7.73    1.04
   2   7  -6   10.50    1.22
   2   7  -6   10.74    1.33
   2   7  -6    8.34    1.06
  -4  -7   7    0.57    0.67
  -4  -7   7   -0.69    0.79
   4   7  -7    1.07    0.87
   4   7  -7    0.31    0.49
   4   7  -7    1.05    0.75
   9  -6   0   -0.33    0.95
   9  -6   0    0.58    0.89
  -9   6   0    1.09    1.13
  -9   6   0    1.69    1.09
  -9   6   0    0.42    0.88
  -9   6   0    0.21    0.79
   7  -6   1    4.64    0.76
   7  -6   1    6.00    1.23
   7  -6   1    4.91    1.23
  -7   6  -1    6.64    1.17
  -7   6  -1    5.86    1.02
  -7   6  -1    8.72    1.59
  -7   6  -1    6.14    1.26
  -7   6  -1    6.27    1.27
   5  -6   2    1.12    0.41
   5  -6   2    0.67    0.47
   5  -6   2    1.85    0.74
   5  -6   2    1.11    0.36
   5  -6   2    1.45    0.66
  -5   6  -2    1.71    0.71
  -5   6  -2    0.85    0.61
  -5   6  -2    1.56    0.57
  -5   6  -2    0.95    0.37
  -5   6  -2    1.00    0.39
   3  -6   3   36.94    2.31
   3  -6   3   35.51    2.33
   3  -6   3   36.77    2.30
   3  -6   3   35.72    2.33
   3  -6   3   33.69    2.44
   3  -6   3   35.54    2.49
   3  -6   3   35.02    2.33
   3  -6   3   36.03    2.34
  -3   6  -3   37.93    2.43
  -3   6  -3   35.79    2.49
  -3   6  -3   34.57    1.80
  -3   6  -3   37.45    2.44
  -3   6  -3   36.35    2.34
   1  -6   4    8.74    0.98
   1  -6   4   12.96    1.08
   1  -6   4   10.54    1.03
   1  -6   4    9.81    0.93
   1  -6   4   10.69    1.14
   1  -6   4    9.83    1.08
  -1   6  -4   11.04    1.04
  -1   6  -4   11.31    0.73
  -1   6  -4   11.72    0.95
  -1   6  -4   10.49    0.71
  -1   6  -4   10.59    1.14
  -1   6  -4   12.37    1.17
  -1  -6   5    6.38    0.92
  -1  -6   5    6.43    0.59
  -1  -6   5    6.54    0.57
  -1  -6   5    6.31    0.55
  -1  -6   5    6.60    0.59
  -1  -6   5    8.20    1.40
   1   6  -5    7.63    0.75
   1   6  -5    6.70    0.95
   1   6  -5    7.56    1.16
   1   6  -5    6.07    0.71
   1   6  -5    7.47    0.95
  -3  -6   6    2.46    0.98
  -3  -6   6    3.23    0.96
   3   6  -6    3.48    0.88
   3   6  -6    1.83    0.74
   3   6  -6    1.43    0.60
  -5  -6   7    4.27    1.29
  -5  -6   7    5.01    1.37
   5   6  -7    2.09    1.15
   5   6  -7    3.15    1.16
   5   6  -7    6.04    1.35
   8  -5   0    0.45    0.82
   8  -5   0    0.51    0.39
   8  -5   0   -0.29    0.44
  -8   5   0    2.02    1.08
  -8   5   0   -0.63    0.41
  -8   5   0    0.41    0.75
  -8   5   0   -0.30    0.53
  -8   5   0    0.37    0.68
   6  -5   1    3.45    0.91
   6  -5   1    2.85    0.55
   6  -5   1    3.59    0.89
   6  -5   1    2.20    0.53
  -6   5  -1    2.43    0.77
  -6   5  -1    4.29    0.88
  -6   5  -1    3.97    0.96
  -6   5  -1    2.43    0.54
  -6   5  -1    4.67    1.01
  -6   5  -1    2.65    0.66
   4  -5   2   55.96    3.40
   4  -5   2   54.90    3.24
   4  -5   2   57.07    3.22
   4  -5   2   58.53    3.27
   4  -5   2   59.06    3.26
   4  -5   2   56.88    3.43
   4  -5   2   56.32    3.40
   4  -5   2   60.90    3.71
  -4   5  -2   63.18    3.64
  -4   5  -2   60.01    3.68
  -4   5  -2   56.67    3.39
  -4   5  -2   60.77    3.45
  -4   5  -2   57.25    3.16
  -4   5  -2   58.83    3.17
  -4   5  -2   61.19    3.27
   2  -5   3   38.32    2.33
   2  -5   3   38.46    2.35
   2  -5   3   33.74    2.31
   2  -5   3   36.37    2.32
   2  -5   3   36.20    2.41
   2  -5   3   42.00    2.61
   2  -5   3   36.17    2.41
   2  -5   3   39.57    2.45
   2  -5   3   36.85    2.39
   2  -5   3   38.59    2.33
  -2   5  -3   39.94    2.40
  -2   5  -3   39.19    2.46
  -2   5  -3   39.37    2.42
  -2   5  -3   38.04    2.33
  -2   5  -3   39.82    2.37
  -2   5  -3   39.07    2.42
   0  -5   4    0.79    0.29
   0  -5   4    1.24    0.39
   0  -5   4   -0.17    0.39
   0  -5   4    0.87    0.31
   0  -5   4    0.67    0.33
   0  -5   4    0.43    0.28
   0   5  -4    1.04    0.37
   0   5  -4    0.29    0.22
   0   5  -4    0.68    0.46
   0   5  -4    0.12    0.19
  -2  -5   5   41.57    2.19
  -2  -5   5   42.79    2.94
  -2  -5   5   43.42    2.49
  -2  -5   5   42.47    2.96
  -2  -5   5   43.08    2.20
  -2  -5   5   41.88    2.22
   2   5  -5   47.49    3.01
   2   5  -5   43.23    2.72
   2   5  -5   43.03    2.70
   2   5  -5   42.88    2.95
   2   5  -5   45.15    2.85
  -4  -5   6   12.20    1.40
  -4  -5   6   12.45    1.17
  -4  -5   6   11.14    2.09
   4   5  -6   11.58    1.36
   4   5  -6   12.30    1.37
   4   5  -6   14.45    1.48
  -6  -5   7    0.19    0.63
  -6  -5   7    0.23    0.69
   6   5  -7    1.74    1.04
   6   5  -7    1.22    0.82
   6   5  -7    0.13    0.57
   9  -4  -1    5.23    1.26
   9  -4  -1    4.60    1.33
   9  -4  -1    4.21    1.08
  -9   4   1    4.32    1.24
  -9   4   1    4.09    1.23
  -9   4   1    4.24    1.21
  -9   4   1    4.96    1.31
   7  -4   0    4.34    0.74
   7  -4   0    6.53    1.28
   7  -4   0    5.07    0.71
   7  -4   0    5.81    1.23
  -7   4   0    7.12    1.24
  -7   4   0    6.81    1.29
  -7   4   0    6.50    1.29
  -7   4   0    4.14    0.76
  -7   4   0    5.03    1.02
  -7   4   0    4.75    1.12
   5  -4   1    0.84    0.22
   5  -4   1    1.13    0.59
   5  -4   1    0.66    0.45
   5  -4   1    0.58    0.27
   5  -4   1    0.63    0.25
   5  -4   1    0.38    0.25
   5  -4   1    0.55    0.18
   5  -4   1    0.45    0.44
  -5   4  -1    0.61    0.47
  -5   4  -1    0.57    0.28
  -5   4  -1    0.36    0.37
  -5   4  -1    0.45    0.48
  -5   4  -1    0.65    0.38
  -5   4  -1    0.74    0.19
  -5   4  -1    0.49    0.35
   3  -4   2  147.09    7.27
   3  -4   2  156.63    7.31
   3  -4   2  140.62    7.59
   3  -4   2  141.74    7.37
   3  -4   2  143.09    7.39
   3  -4   2  139.03    7.25
   3  -4   2  138.82    7.42
   3  -4   2  134.14    7.57
  -3   4  -2  136.68    7.11
  -3   4  -2  138.13    7.41
  -3   4  -2  137.92    7.36
  -3   4  -2  144.96    7.14
  -3   4  -2  151.49    7.56
  -3   4  -2  139.79    7.59
  -3   4  -2  138.16    7.28
   1  -4   3    1.65    0.40
   1  -4   3    1.53    0.45
   1  -4   3    1.78    0.44
   1  -4   3    2.31    0.49
   1  -4   3    1.43    0.47
   1  -4   3    1.79    0.39
   1  -4   3    1.34    0.44
   1  -4   3    1.61    0.42
   1  -4   3    1.81    0.43
  -1   4  -3    2.12    0.45
  -1   4  -3    1.89    0.43
  -1   4  -3    1.96    0.51
  -1   4  -3    1.94    0.49
  -1   4  -3    1.58    0.46
  -1  -4   4    2.16    0.55
  -1  -4   4    1.58    0.54
  -1  -4   4    0.93    0.40
  -1  -4   4    1.52    0.50
  -1  -4   4    0.91    0.29
  -1  -4   4    1.20    0.27
  -1  -4   4    1.24    0.27
  -1  -4   4    2.24    0.60
  -1  -4   4    1.04    0.24
   1   4  -4    1.77    0.51
   1   4  -4    1.11    0.32
   1   4  -4    0.63    0.33
   1   4  -4    1.55    0.42
  -3  -4   5    0.22    0.10
  -3  -4   5    0.00    0.09
  -3  -4   5   -0.14    0.47
  -3  -4   5    0.52    0.43
  -3  -4   5    0.36    0.10
   3   4  -5    0.02    0.35
   3   4  -5   -0.07    0.42
   3   4  -5    0.02    0.29
   3   4  -5   -0.24    0.28
   3   4  -5    1.00    0.44
  -5  -4   6    1.79    0.82
  -5  -4   6    1.88    0.77
   5   4  -6    2.05    0.82
   5   4  -6    0.75    0.71
  -7  -4   7    2.25    0.94
  -7  -4   7    1.21    0.93
   7   4  -7    1.50    0.95
   7   4  -7    1.18    1.03
   7   4  -7    0.35    0.73
   8  -3  -1   -0.72    0.46
   8  -3  -1   -0.20    0.38
   8  -3  -1    0.34    0.73
  -8   3   1    0.29    0.56
  -8   3   1    0.18    0.71
  -8   3   1   -0.27    0.52
  -8   3   1   -1.58    0.73
  -8   3   1    0.59    0.64
  -8   3   1    0.20    0.79
   6  -3   0    4.28    0.95
   6  -3   0    4.43    0.98
   6  -3   0    3.81    0.72
   6  -3   0    4.00    0.50
  -6   3   0    3.74    0.82
  -6   3   0    5.00    0.92
  -6   3   0    4.58    1.09
  -6   3   0    3.36    0.48
  -6   3   0    4.95    0.99
  -6   3   0    5.53    1.06
   4  -3   1   35.83    2.01
   4  -3   1   31.87    2.18
   4  -3   1   36.14    2.38
   4  -3   1   33.47    1.94
   4  -3   1   35.74    2.24
   4  -3   1   30.55    1.96
   4  -3   1   37.87    2.43
  -4   3  -1   38.72    2.42
  -4   3  -1   38.68    2.28
  -4   3  -1   33.41    1.94
  -4   3  -1   32.83    2.17
  -4   3  -1   40.32    2.19
  -4   3  -1   34.56    2.12
  -4   3  -1   36.67    1.91
  -4   3  -1   35.65    2.31
   2  -3   2    0.09    0.25
   2  -3   2    0.26    0.18
   2  -3   2    0.28    0.22
   2  -3   2    0.14    0.18
   2  -3   2    0.31    0.23
   2  -3   2   -0.04    0.15
   2  -3   2    0.17    0.17
   2  -3   2    0.09    0.21
   2  -3   2    0.15    0.22
  -2   3  -2    0.46    0.27
  -2   3  -2    0.07    0.09
  -2   3  -2    0.06    0.18
  -2   3  -2    0.22    0.10
  -2   3  -2    0.42    0.17
  -2   3  -2    0.26    0.27
  -2   3  -2    0.25    0.23
   0  -3   3   33.95    2.06
   0  -3   3   33.97    1.95
   0  -3   3   35.53    2.11
   0  -3   3   32.79    2.07
   0  -3   3   33.27    1.96
   0  -3   3   33.12    1.91
   0  -3   3   33.41    2.09
   0  -3   3   33.66    1.91
   0  -3   3   33.79    1.95
   0   3  -3   36.57    2.13
   0   3  -3   32.79    1.94
   0   3  -3   35.76    2.08
   0   3  -3   35.71    1.90
   0   3  -3   33.49    1.85
   0   3  -3   33.45    2.08
   0   3  -3   35.09    1.98
  -2  -3   4   49.19    2.87
  -2  -3   4   45.53    2.79
  -2  -3   4   47.86    2.61
  -2  -3   4   47.44    2.79
  -2  -3   4   45.21    2.38
  -2  -3   4   42.55    2.72
  -2  -3   4   44.03    2.80
  -2  -3   4   42.99    2.58
  -2  -3   4   43.66    2.35
   2   3  -4   42.29    2.74
   2   3  -4   43.87    2.69
   2   3  -4   39.43    2.71
   2   3  -4   43.93    2.35
   2   3  -4   45.78    2.68
   2   3  -4   46.32    2.80
  -4  -3   5    0.97    0.27
  -4  -3   5    1.04    0.27
  -4  -3   5    1.36    0.51
  -4  -3   5    2.14    0.70
  -4  -3   5    1.43    0.64
   4   3  -5    1.99    0.63
   4   3  -5    1.61    0.33
   4   3  -5    1.20    0.57
   4   3  -5    1.33    0.54
   4   3  -5    1.62    0.35
   4   3  -5    1.12    0.59
   4   3  -5    0.78    0.48
  -6  -3   6    0.27    0.60
  -6  -3   6    0.53    0.64
  -6  -3   6   -0.32    0.29
  -6  -3   6    0.14    0.29
  -6  -3   6    0.28    0.57
   6   3  -6    0.17    0.39
   6   3  -6    0.89    0.70
   6   3  -6    0.70    0.64
   6   3  -6    0.83    0.75
   9  -2  -2    2.29    0.96
   9  -2  -2    1.49    0.68
   9  -2  -2    1.70    0.93
   9  -2  -2    0.94    0.78
  -9   2   2    1.39    0.85
  -9   2   2    1.81    1.01
  -9   2   2    2.70    0.84
  -9   2   2    0.70    0.79
   7  -2  -1    7.73    0.99
   7  -2  -1    9.29    1.18
  -7   2   1    8.15    1.07
  -7   2   1    7.62    1.11
  -7   2   1    7.47    1.04
  -7   2   1    6.63    1.26
  -7   2   1    5.46    1.09
   5  -2   0    0.71    0.49
   5  -2   0    1.13    0.21
   5  -2   0    1.68    0.69
   5  -2   0    1.19    0.41
   5  -2   0    1.86    0.55
   5  -2   0    1.45    0.36
  -5   2   0    0.92    0.21
  -5   2   0    1.16    0.31
  -5   2   0    0.81    0.38
  -5   2   0    1.08    0.54
  -5   2   0    1.39    0.49
  -5   2   0    1.62    0.51
  -5   2   0    1.05    0.55
   3  -2   1   14.11    0.87
   3  -2   1   15.54    1.20
   3  -2   1   15.70    0.92
   3  -2   1   15.26    1.20
   3  -2   1   15.42    0.99
   3  -2   1   16.92    1.13
   3  -2   1   14.99    1.12
   3  -2   1   14.79    0.98
  -3   2  -1   15.23    0.88
  -3   2  -1   15.38    1.13
  -3   2  -1   14.14    0.90
  -3   2  -1   13.35    1.10
  -3   2  -1   13.83    1.05
  -3   2  -1   15.20    1.03
  -3   2  -1   15.48    1.19
  -3   2  -1   15.13    1.05
   1  -2   2  335.25   16.46
   1  -2   2  322.83   16.33
   1  -2   2  327.95   16.43
   1  -2   2  318.56   16.42
   1  -2   2  338.21   16.48
   1  -2   2  323.32   16.31
   1  -2   2  336.19   16.42
  -1   2  -2  343.43   16.36
  -1   2  -2  330.39   16.47
  -1   2  -2  324.04   16.45
  -1   2  -2  333.34   16.32
  -1   2  -2  340.95   16.21
  -1  -2   3   10.26    0.74
  -1  -2   3   13.60    0.97
  -1  -2   3   10.66    0.73
  -1  -2   3    9.65    0.76
  -1  -2   3   11.88    0.83
   1   2  -3   12.76    0.96
   1   2  -3   11.54    0.73
   1   2  -3   12.14    0.83
   1   2  -3   13.79    0.98
  -3  -2   4   22.08    1.61
  -3  -2   4   23.01    1.34
  -3  -2   4   22.86    1.58
  -3  -2   4   22.01    1.72
  -3  -2   4   21.86    1.57
  -3  -2   4   20.60    1.65
  -3  -2   4   22.62    1.37
  -3  -2   4   22.30    1.58
  -3  -2   4   21.62    1.59
   3   2  -4   22.97    1.64
   3   2  -4   22.56    1.60
   3   2  -4   22.60    1.62
   3   2  -4   24.33    1.69
   3   2  -4   21.66    1.35
   3   2  -4   21.90    1.32
   3   2  -4   20.23    1.62
   3   2  -4   21.29    1.58
  -5  -2   5    8.77    1.03
  -5  -2   5    7.93    1.10
  -5  -2   5    8.68    0.79
  -5  -2   5    9.87    1.03
   5   2  -5    7.82    1.06
   5   2  -5    6.73    0.75
   5   2  -5    9.55    1.15
   5   2  -5    6.32    0.71
   5   2  -5    8.02    1.10
  -7  -2   6    0.31    0.47
  -7  -2   6    1.07    0.82
  -7  -2   6    1.29    0.69
  -7  -2   6   -1.25    0.55
  -7  -2   6    0.95    0.46
   7   2  -6    0.65    0.61
   7   2  -6    0.02    0.74
   7   2  -6   -0.02    0.52
   8  -1  -2    4.16    1.04
   8  -1  -2    3.29    0.89
   8  -1  -2    3.77    0.89
   8  -1  -2    3.20    0.97
   8  -1  -2    2.99    0.91
  -8   1   2    1.71    0.74
  -8   1   2    3.46    0.62
  -8   1   2    4.52    1.04
  -8   1   2    4.04    1.04
  -8   1   2    3.25    0.99
  -8   1   2    3.02    0.57
   6  -1  -1   18.77    1.60
   6  -1  -1   21.08    1.72
   6  -1  -1   20.44    1.64
   6  -1  -1   17.62    1.32
  -6   1   1   16.37    1.16
  -6   1   1   19.20    1.62
  -6   1   1   16.99    1.16
  -6   1   1   17.23    1.60
  -6   1   1   17.95    1.32
  -6   1   1   18.24    1.59
  -6   1   1   18.94    1.51
  -6   1   1   18.34    1.57
   4  -1   0   12.36    1.04
   4  -1   0   14.33    1.15
   4  -1   0   13.13    1.11
   4  -1   0   12.70    1.11
   4  -1   0   13.61    1.13
   4  -1   0   12.84    0.87
   4  -1   0   12.77    1.05
   4  -1   0   13.54    0.85
  -4   1   0   14.54    1.16
  -4   1   0   11.88    1.06
  -4   1   0   11.49    1.05
  -4   1   0   12.26    1.03
  -4   1   0   12.94    1.07
  -4   1   0   12.43    0.86
   2  -1   1  275.87   13.66
   2  -1   1  280.93   13.87
   2  -1   1  284.94   13.83
   2  -1   1  285.14   13.82
   2  -1   1  275.36   13.86
   2  -1   1  291.86   13.73
   2  -1   1  265.52   13.74
  -2   1  -1  253.48   13.79
  -2   1  -1  289.92   13.76
  -2   1  -1  283.93   13.84
  -2   1  -1  259.33   13.84
  -2   1  -1  276.12   13.76
   0  -1   2   31.57    1.74
   0  -1   2   30.24    1.59
   0  -1   2   28.23    1.67
   0  -1   2   31.41    1.72
   0  -1   2   31.23    1.62
   0  -1   2   30.75    1.62
   0  -1   2   31.32    1.73
   0  -1   2   33.17    1.75
   0   1  -2   31.73    1.60
   0   1  -2   30.74    1.69
   0   1  -2   31.03    1.64
   0   1  -2   28.98    1.67
   0   1  -2   32.14    1.73
  -2  -1   3   37.92    2.10
  -2  -1   3   34.37    2.08
  -2  -1   3   35.31    2.08
  -2  -1   3   34.96    2.07
  -2  -1   3   35.79    1.97
  -2  -1   3   35.06    2.12
  -2  -1   3   37.26    2.15
  -2  -1   3   36.74    2.12
   2   1  -3   36.12    2.13
   2   1  -3   34.64    2.09
   2   1  -3   34.59    1.98
   2   1  -3   35.75    2.13
   2   1  -3   36.47    2.11
   2   1  -3   35.68    2.14
   2   1  -3   34.88    1.95
   2   1  -3   36.82    2.10
  -4  -1   4    0.47    0.34
  -4  -1   4    0.65    0.33
  -4  -1   4    0.86    0.42
  -4  -1   4    0.70    0.32
  -4  -1   4    0.92    0.33
  -4  -1   4    0.81    0.33
  -4  -1   4    0.82    0.40
  -4  -1   4    1.05    0.50
   4   1  -4    0.96    0.40
   4   1  -4    0.75    0.46
   4   1  -4    0.41    0.33
   4   1  -4    1.36    0.49
   4   1  -4    1.13    0.45
   4   1  -4    0.76    0.40
   4   1  -4    1.11    0.34
   4   1  -4    0.99    0.41
  -6  -1   5    3.60    0.79
  -6  -1   5    3.01    0.83
  -6  -1   5    5.03    0.80
  -6  -1   5    4.80    1.08
  -6  -1   5    4.47    0.82
  -6  -1   5    7.05    0.91
   6   1  -5    4.08    0.81
   6   1  -5    3.67    0.92
   6   1  -5    4.98    1.06
   6   1  -5    5.35    1.15
  -8  -1   6   -0.14    0.74
  -8  -1   6    0.41    0.63
  -8  -1   6   -0.81    0.51
  -8  -1   6   -0.58    0.67
  -8  -1   6    0.55    0.73
   8   1  -6   -0.75    0.54
   8   1  -6   -0.54    0.49
   9   0  -3    1.39    0.81
   9   0  -3    2.24    0.93
   9   0  -3    1.67    0.80
   9   0  -3    1.60    1.06
  -9   0   3    1.91    1.13
  -9   0   3    1.18    0.76
   7   0  -2    0.03    0.63
   7   0  -2    0.09    0.51
   7   0  -2    0.34    0.63
   7   0  -2    0.64    0.57
  -7   0   2    0.35    0.45
  -7   0   2    0.43    0.62
  -7   0   2    0.71    0.43
  -7   0   2    0.40    0.65
  -7   0   2    0.11    0.40
  -7   0   2    0.61    0.52
   5   0  -1    9.06    0.96
   5   0  -1    9.74    0.98
   5   0  -1   10.47    1.06
   5   0  -1   10.55    0.92
   5   0  -1    9.53    1.00
   5   0  -1   10.40    0.85
  -5   0   1   11.17    0.88
  -5   0   1   11.57    0.98
  -5   0   1   10.57    0.85
  -5   0   1   10.27    1.09
  -5   0   1   11.37    1.15
  -5   0   1   10.31    1.09
  -5   0   1    9.86    0.99
  -5   0   1    9.36    0.89
   3   0   0   36.29    2.23
   3   0   0   37.91    2.22
   3   0   0   36.99    2.02
   3   0   0   35.82    2.12
   3   0   0   36.51    2.20
   3   0   0   35.94    2.16
   3   0   0   35.50    2.04
   3   0   0   37.14    2.17
   3   0   0   36.93    2.20
  -3   0   0   37.33    2.27
  -3   0   0   36.06    2.19
  -3   0   0   35.49    2.15
  -3   0   0   37.24    2.22
  -3   0   0   35.54    2.04
  -3   0   0   38.43    2.03
  -3   0   0   35.56    2.21
  -3   0   0   36.28    2.12
  -1   0   2  203.59   10.67
  -1   0   2  200.04   10.64
  -1   0   2  238.42   10.66
  -1   0   2  248.59   10.75
  -1   0   2  197.63   10.67
  -1   0   2  197.15   10.63
  -1   0   2  239.84   10.69
   1   0  -2  212.26   10.67
   1   0  -2  202.01   10.68
   1   0  -2  203.92   10.64
   1   0  -2  219.11   10.64
  -3   0   3  156.69    7.79
  -3   0   3  151.18    7.59
  -3   0   3  150.91    7.64
  -3   0   3  149.69    7.73
  -3   0   3  145.18    7.69
  -3   0   3  150.08    7.76
  -3   0   3  147.87    7.68
  -3   0   3  146.29    7.71
   3   0  -3  150.20    7.78
   3   0  -3  145.12    7.61
   3   0  -3  147.66    7.59
   3   0  -3  150.48    7.74
   3   0  -3  148.76    7.74
   3   0  -3  150.41    7.70
   3   0  -3  153.05    7.78
   3   0  -3  146.32    7.66
  -5   0   4    3.77    0.69
  -5   0   4    3.58    0.64
  -5   0   4    3.75    0.76
  -5   0   4    5.44    0.98
  -5   0   4    3.36    0.95
  -5   0   4    3.72    0.65
  -5   0   4    3.87    0.78
   5   0  -4    4.39    0.86
   5   0  -4    5.68    1.03
   5   0  -4    4.08    0.92
   5   0  -4    4.69    1.02
   5   0  -4    3.85    0.77
  -7   0   5    2.41    0.84
  -7   0   5    1.81    0.83
  -7   0   5    3.90    0.89
  -7   0   5    1.44    0.57
  -7   0   5    2.87    0.80
  -7   0   5    2.09    0.60
   7   0  -5    2.27    0.80
   7   0  -5    1.20    0.82
   7   0  -5    2.16    0.84
  -9   0   6    3.07    0.84
  -9   0   6    0.09    0.84
  -9   0   6    0.15    0.71
  -9   0   6    1.84    1.20
   9   0  -6   -0.52    0.75
   9   0  -6   -0.33    0.88
   9   0  -6    1.15    0.81
   8   1  -3    0.70    0.67
   8   1  -3    1.28    0.68
   8   1  -3    1.04    0.93
   8   1  -3    0.57    0.58
  -8  -1   3   -0.93    0.51
  -8  -1   3    1.21    0.76
  -8  -1   3   -0.09    0.49
   6   1  -2    4.33    1.01
   6   1  -2    4.29    0.83
   6   1  -2    5.08    0.90
   6   1  -2    5.13    0.93
   6   1  -2    5.81    0.90
   6   1  -2    5.99    1.23
  -6  -1   2    5.16    0.67
  -6  -1   2    6.32    1.23
  -6  -1   2    3.85    0.75
  -6  -1   2    5.34    0.85
   4   1  -1    4.22    0.55
   4   1  -1    4.52    0.53
   4   1  -1    3.76    0.49
   4   1  -1    4.73    0.82
   4   1  -1    4.59    0.59
   4   1  -1    4.17    0.49
   4   1  -1    4.02    0.54
   4   1  -1    5.56    0.89
  -4  -1   1    4.65    0.65
  -4  -1   1    4.34    0.51
  -4  -1   1    5.05    0.57
  -4  -1   1    3.86    0.48
  -4  -1   1    3.90    0.73
  -4  -1   1    4.12    0.52
  -4  -1   1    3.99    0.53
   2   1   0  165.33    8.03
   2   1   0  159.53    7.83
   2   1   0  154.04    7.88
   2   1   0  162.65    7.87
   2   1   0  153.45    7.99
   2   1   0  136.04    7.91
   2   1   0  157.23    8.03
   2   1   0  154.17    7.98
   2   1   0  156.17    7.82
   2   1   0  159.10    7.94
  -2  -1   0  157.10    8.04
  -2  -1   0  157.32    7.99
  -2  -1   0  162.35    7.95
  -2  -1   0  156.12    7.88
  -2  -1   0  150.11    8.02
  -2  -1   0  160.34    7.98
   0   1   1  155.51    8.75
   0  -1  -1  198.05    8.79
  -2   1   2   22.09    1.40
  -2   1   2   22.94    1.44
  -2   1   2   25.19    1.42
  -2   1   2   24.17    1.31
  -2   1   2   22.93    1.42
  -2   1   2   21.96    1.40
   2  -1  -2   22.96    1.43
   2  -1  -2   24.21    1.41
   2  -1  -2   23.52    1.40
   2  -1  -2   22.26    1.30
   2  -1  -2   21.87    1.41
   2  -1  -2   23.39    1.40
   2  -1  -2   24.05    1.41
   2  -1  -2   22.72    1.28
  -4   1   3   23.99    1.70
  -4   1   3   24.80    1.75
  -4   1   3   25.78    1.76
  -4   1   3   25.39    1.75
  -4   1   3   25.22    1.66
  -4   1   3   27.18    1.58
  -4   1   3   23.94    1.66
  -4   1   3   25.65    1.69
  -4   1   3   24.90    1.46
   4  -1  -3   23.47    1.67
   4  -1  -3   27.07    1.55
   4  -1  -3   24.68    1.76
   4  -1  -3   25.27    1.73
   4  -1  -3   28.65    2.01
   4  -1  -3   23.19    1.63
   4  -1  -3   26.07    1.74
  -6   1   4    6.92    1.00
  -6   1   4    7.79    0.66
  -6   1   4    7.52    0.95
  -6   1   4    5.78    1.04
  -6   1   4    5.02    0.98
  -6   1   4    5.67    1.26
   6  -1  -4    8.61    1.06
   6  -1  -4    9.64    1.05
   6  -1  -4    7.99    0.94
  -8   1   5    0.39    0.73
  -8   1   5    0.25    0.34
  -8   1   5   -0.33    0.58
  -8   1   5    0.61    0.61
  -8   1   5    0.35    0.41
  -8   1   5    0.27    0.63
   8  -1  -5    0.69    0.60
   8  -1  -5    0.71    0.62
   8  -1  -5   -1.29    0.58
   7   2  -3    1.01    0.69
   7   2  -3    0.08    0.44
   7   2  -3   -0.43    0.71
   7   2  -3    0.35    0.69
   7   2  -3   -0.78    0.40
   7   2  -3    0.86    0.81
  -7  -2   3    1.17    0.68
  -7  -2   3    0.22    0.77
  -7  -2   3    0.62    0.60
   5   2  -2    0.77    0.34
   5   2  -2    0.48    0.28
   5   2  -2   -0.04    0.31
   5   2  -2    0.77    0.46
   5   2  -2    0.61    0.33
   5   2  -2    3.04    0.70
   5   2  -2    0.09    0.44
   5   2  -2    0.43    0.55
  -5  -2   2    0.00    0.38
  -5  -2   2    0.76    0.48
   3   2  -1    6.30    0.74
   3   2  -1    7.44    0.53
   3   2  -1    6.25    0.75
   3   2  -1    6.13    0.68
   3   2  -1    5.96    0.72
   3   2  -1    6.43    0.70
   3   2  -1    6.44    0.51
   3   2  -1    7.17    0.79
   3   2  -1    6.69    0.55
  -3  -2   1    6.49    0.74
  -3  -2   1    6.79    0.75
  -3  -2   1    6.77    0.73
  -3  -2   1    6.29    0.69
  -3  -2   1    6.48    0.68
  -3  -2   1    6.78    0.81
   1   2   0    2.29    0.34
   1   2   0    2.98    0.45
   1   2   0    2.39    0.33
   1   2   0    2.66    0.24
   1   2   0    2.53    0.34
   1   2   0    2.59    0.25
   1   2   0    2.99    0.49
   1   2   0    2.93    0.39
  -1  -2   0    2.55    0.33
  -1  -2   0    2.51    0.35
  -1  -2   0    2.66    0.45
  -1  -2   0    2.68    0.35
  -1  -2   0    3.05    0.50
  -1  -2   0    2.49    0.25
  -1  -2   0    2.81    0.46
  -1  -2   0    2.21    0.22
   1  -2  -1   58.32    2.75
   1  -2  -1   43.81    2.72
  -3   2   2    4.63    0.65
  -3   2   2    5.36    0.76
  -3   2   2    3.34    0.28
  -3   2   2    4.28    0.70
  -3   2   2    3.54    0.45
  -3   2   2    3.83    0.47
  -3   2   2    3.18    0.59
   3  -2  -2    3.21    0.43
   3  -2  -2    3.97    0.45
   3  -2  -2    3.35    0.36
   3  -2  -2    4.66    0.72
   3  -2  -2    3.51    0.49
   3  -2  -2    3.55    0.43
   3  -2  -2    3.43    0.29
  -5   2   3    1.67    0.57
  -5   2   3    0.79    0.42
  -5   2   3    1.56    0.49
  -5   2   3    1.54    0.49
  -5   2   3    1.84    0.75
  -5   2   3    1.47    0.50
  -5   2   3    1.33    0.20
  -5   2   3    1.30    0.18
   5  -2  -3    2.45    0.64
   5  -2  -3    1.60    0.61
   5  -2  -3    2.00    0.54
   5  -2  -3    1.52    0.54
  -7   2   4   19.15    1.79
  -7   2   4   18.55    1.76
  -7   2   4   20.36    1.71
  -7   2   4   17.31    1.79
  -7   2   4   16.33    1.81
   7  -2  -4   19.15    1.84
   7  -2  -4   19.52    1.64
   7  -2  -4   18.89    1.73
  -9   2   5    2.64    0.87
  -9   2   5    2.10    1.03
  -9   2   5    0.84    0.95
  -9   2   5    1.96    0.87
   9  -2  -5    2.36    0.97
   8   3  -4    3.26    1.21
   8   3  -4    2.14    0.90
   8   3  -4    2.03    1.03
  -8  -3   4   -0.03    0.88
   6   3  -3    0.09    0.30
   6   3  -3    0.73    0.39
   6   3  -3    0.77    0.56
   6   3  -3    0.48    0.44
   6   3  -3   -0.30    0.55
   6   3  -3    0.01    0.28
  -6  -3   3    0.14    0.58
  -6  -3   3    0.01    0.65
  -6  -3   3    0.65    0.56
   4   3  -2   10.32    0.69
   4   3  -2    9.26    1.04
   4   3  -2    9.20    0.66
   4   3  -2   10.68    1.18
   4   3  -2   10.60    1.09
   4   3  -2   10.76    1.28
  -4  -3   2   10.85    1.23
  -4  -3   2   10.30    1.03
  -4  -3   2   11.73    1.27
   2   3  -1   10.59    0.59
   2   3  -1   10.09    0.60
   2   3  -1   10.95    0.60
   2   3  -1   10.73    0.97
   2   3  -1   10.71    0.96
   2   3  -1   11.56    1.00
   2   3  -1   11.07    0.96
   2   3  -1   12.00    0.97
  -2  -3   1   10.29    0.95
  -2  -3   1   11.01    1.00
  -2  -3   1   11.78    0.97
  -2  -3   1   12.14    1.08
  -2  -3   1   12.41    0.97
  -2  -3   1   11.09    1.00
   0   3   0    5.34    0.59
   0   3   0    5.91    0.54
   0   3   0    6.53    0.48
   0   3   0    6.34    0.51
   0   3   0    6.35    0.52
   0   3   0    6.72    0.61
   0   3   0    6.17    0.49
   0   3   0    5.73    0.58
   0  -3   0    5.60    0.58
   0  -3   0    6.02    0.61
   0  -3   0    5.97    0.48
   0  -3   0    6.15    0.55
   0  -3   0    6.40    0.48
   0  -3   0    6.51    0.60
   0  -3   0    6.42    0.47
   0  -3   0    4.94    0.62
   0  -3   0    5.81    0.59
  -2   3   1   16.48    1.20
  -2   3   1   16.57    1.04
  -2   3   1   15.27    1.13
  -2   3   1   15.98    0.91
  -2   3   1   15.14    1.10
  -2   3   1   16.85    1.03
  -2   3   1   17.70    1.06
   2  -3  -1   15.95    0.97
   2  -3  -1   17.30    0.92
   2  -3  -1   17.88    1.17
   2  -3  -1   16.31    1.02
   2  -3  -1   16.36    1.12
   2  -3  -1   17.33    1.16
   2  -3  -1   16.48    1.15
   2  -3  -1   16.56    1.19
   2  -3  -1   16.49    1.14
  -4   3   2   43.77    2.68
  -4   3   2   39.81    2.47
  -4   3   2   42.08    2.56
  -4   3   2   39.31    2.43
  -4   3   2   41.42    2.58
  -4   3   2   43.28    2.32
  -4   3   2   39.14    2.46
   4  -3  -2   41.17    2.42
   4  -3  -2   40.57    2.40
   4  -3  -2   42.90    2.32
   4  -3  -2   43.03    2.65
   4  -3  -2   40.86    2.58
   4  -3  -2   39.95    2.46
  -6   3   3   36.56    2.53
  -6   3   3   32.33    2.31
  -6   3   3   30.83    2.31
  -6   3   3   33.07    2.38
  -6   3   3   33.64    2.18
   6  -3  -3   30.06    2.10
   6  -3  -3   33.70    2.40
   6  -3  -3   32.47    2.23
  -8   3   4    2.09    1.11
  -8   3   4    1.81    0.76
  -8   3   4    3.33    0.97
  -8   3   4    1.39    1.09
  -8   3   4    3.17    1.07
   8  -3  -4    2.92    1.02
   8  -3  -4    2.26    0.84
   8  -3  -4    2.36    0.75
   7   4  -4    3.22    0.98
   7   4  -4    0.60    0.72
   7   4  -4    1.74    1.69
  -7  -4   4   -0.38    0.89
  -7  -4   4    2.48    0.89
   5   4  -3    0.54    0.58
   5   4  -3   -0.30    0.43
   5   4  -3    0.49    0.59
   5   4  -3   -0.05    0.47
  -5  -4   3    0.63    0.44
  -5  -4   3    0.38    0.44
  -5  -4   3   -0.21    0.47
   3   4  -2   12.62    1.26
   3   4  -2   13.64    1.25
   3   4  -2   12.69    1.24
   3   4  -2   13.17    1.32
  -3  -4   2   14.22    1.38
  -3  -4   2   14.89    1.33
  -3  -4   2   14.73    1.22
   1   4  -1    2.93    0.23
   1   4  -1    2.31    0.24
   1   4  -1    4.58    0.58
   1   4  -1    3.35    0.58
   1   4  -1    2.79    0.59
  -1  -4   1    2.53    0.23
  -1  -4   1    2.45    0.56
  -1  -4   1    2.85    0.62
  -1  -4   1    2.65    0.59
  -1  -4   1    3.11    0.48
  -1  -4   1    4.26    0.57
  -1  -4   1    2.85    0.25
  -1  -4   1    3.34    0.54
  -1   4   0    5.15    0.59
  -1   4   0    4.98    0.44
  -1   4   0    5.06    0.56
  -1   4   0    4.67    0.43
  -1   4   0    4.52    0.49
  -1   4   0    4.99    0.48
  -1   4   0    5.80    0.60
  -1   4   0    5.27    0.55
   1  -4   0    4.49    0.50
   1  -4   0    4.83    0.57
   1  -4   0    4.36    0.53
   1  -4   0    4.56    0.55
   1  -4   0    4.74    0.47
   1  -4   0    5.22    0.62
   1  -4   0    4.12    0.54
   1  -4   0    4.05    0.47
   1  -4   0    4.20    0.47
  -3   4   1   29.76    1.78
  -3   4   1   30.82    1.91
  -3   4   1   29.21    1.95
  -3   4   1   32.47    2.00
  -3   4   1   29.80    1.66
  -3   4   1   29.72    1.73
  -3   4   1   28.20    2.00
  -3   4   1   30.40    1.78
   3  -4  -1   26.92    1.93
   3  -4  -1   30.13    1.74
   3  -4  -1   34.57    2.01
   3  -4  -1   30.25    2.17
   3  -4  -1   27.25    1.72
   3  -4  -1   29.89    1.63
   3  -4  -1   29.13    1.89
   3  -4  -1   32.91    1.69
  -5   4   2    2.69    0.71
  -5   4   2    2.71    0.61
  -5   4   2    2.23    0.61
  -5   4   2    3.76    0.60
  -5   4   2    2.32    0.59
   5  -4  -2    3.04    0.55
   5  -4  -2    3.01    0.70
   5  -4  -2    3.15    0.69
   5  -4  -2    4.10    0.86
  -7   4   3    1.25    0.67
  -7   4   3    2.81    0.82
  -7   4   3    1.70    0.70
  -7   4   3    1.67    0.76
  -7   4   3    2.45    0.87
   7  -4  -3    3.25    0.79
   7  -4  -3    1.43    0.62
   7  -4  -3    2.81    0.83
  -9   4   4    0.45    0.85
  -9   4   4    0.27    0.54
  -9   4   4   -0.65    0.76
  -9   4   4    1.74    0.92
   9  -4  -4    1.62    0.83
   9  -4  -4    0.61    0.61
   6   5  -4   -0.01    0.61
   6   5  -4    0.87    0.84
   6   5  -4    0.24    0.79
  -6  -5   4   -0.52    0.66
  -6  -5   4    0.88    0.90
   4   5  -3   11.59    1.32
   4   5  -3   15.82    1.56
   4   5  -3   15.30    1.56
   4   5  -3   14.78    1.49
  -4  -5   3   14.47    1.56
  -4  -5   3   15.06    1.41
  -4  -5   3   15.05    1.49
   2   5  -2    8.24    0.96
   2   5  -2    8.47    0.86
   2   5  -2    7.62    0.93
   2   5  -2    6.48    0.81
  -2  -5   2    8.69    1.03
  -2  -5   2    8.09    1.03
   0   5  -1   84.93    4.86
   0   5  -1   86.58    4.60
   0   5  -1   92.00    4.91
   0   5  -1   89.76    4.62
   0   5  -1   84.63    4.76
   0   5  -1   91.44    4.52
   0   5  -1   93.61    4.90
   0   5  -1   89.30    4.55
   0  -5   1   91.96    4.92
   0  -5   1   78.59    4.81
   0  -5   1   85.78    4.53
   0  -5   1   84.77    4.50
   0  -5   1   84.97    4.36
   0  -5   1   85.39    4.37
   0  -5   1   85.11    4.84
   0  -5   1   85.62    4.79
   0  -5   1   82.62    4.80
   0  -5   1   87.40    4.86
  -2   5   0   20.03    1.54
  -2   5   0   21.44    1.30
  -2   5   0   23.39    1.60
  -2   5   0   21.02    1.49
  -2   5   0   22.09    1.30
  -2   5   0   23.76    1.54
   2  -5   0   22.50    1.52
   2  -5   0   20.97    1.53
   2  -5   0   22.15    1.39
   2  -5   0   21.66    1.37
   2  -5   0   22.94    1.61
   2  -5   0   23.00    1.59
   2  -5   0   22.08    1.51
   2  -5   0   19.39    1.52
   2  -5   0   22.54    1.59
  -4   5   1    3.03    0.39
  -4   5   1    3.06    0.43
  -4   5   1    3.81    0.61
  -4   5   1    3.96    0.84
  -4   5   1    3.94    0.69
  -4   5   1    4.16    0.83
   4  -5  -1    3.88    0.76
   4  -5  -1    2.87    0.37
   4  -5  -1    3.32    0.40
   4  -5  -1    2.50    0.57
   4  -5  -1    2.86    0.38
   4  -5  -1    2.77    0.24
  -6   5   2    5.88    0.86
  -6   5   2    5.77    1.12
  -6   5   2    5.58    0.98
  -6   5   2    5.70    1.15
   6  -5  -2    4.33    0.61
   6  -5  -2    5.36    0.77
   6  -5  -2    7.42    1.25
   6  -5  -2    3.90    0.58
  -8   5   3    1.62    0.76
  -8   5   3    1.14    0.82
  -8   5   3    2.69    1.04
  -8   5   3    2.36    0.76
  -8   5   3    2.14    1.08
   8  -5  -3    2.03    0.91
   8  -5  -3    1.56    0.68
   8  -5  -3    1.61    0.69
   5   6  -4    3.03    1.03
   5   6  -4    2.68    1.12
   5   6  -4    2.04    0.84
  -5  -6   4    5.92    1.37
  -5  -6   4    3.25    1.09
   3   6  -3   58.88    3.88
   3   6  -3   61.67    4.08
   3   6  -3   61.12    3.93
   3   6  -3   65.13    4.13
  -3  -6   3   67.17    4.17
  -3  -6   3   61.22    3.73
  -3  -6   3   69.69    4.24
   1   6  -2    0.74    0.42
   1   6  -2    1.17    0.42
   1   6  -2    1.30    0.61
  -1  -6   2    0.82    0.28
  -1  -6   2    0.99    0.57
  -1  -6   2    1.03    0.17
  -1  -6   2    0.56    0.13
  -1  -6   2    0.94    0.16
  -1  -6   2    0.53    0.41
  -1  -6   2    0.78    0.15
  -1   6  -1    4.94    0.81
  -1   6  -1    3.51    0.65
  -1   6  -1    3.46    0.73
  -1   6  -1    3.50    0.75
  -1   6  -1    4.01    0.79
  -1   6  -1    2.97    0.42
  -1   6  -1    3.57    0.43
   1  -6   1    4.45    0.85
   1  -6   1    4.07    0.67
   1  -6   1    3.58    0.75
  -3   6   0    5.75    0.52
  -3   6   0    5.26    0.51
  -3   6   0    5.67    0.76
  -3   6   0    6.19    0.76
  -3   6   0    6.51    1.24
   3  -6   0    6.37    0.76
   3  -6   0    5.48    0.58
   3  -6   0    5.07    0.56
   3  -6   0    5.24    0.67
   3  -6   0    5.45    0.74
  -5   6   1    1.56    0.78
  -5   6   1    0.95    0.40
  -5   6   1    1.97    0.50
  -5   6   1    1.71    0.65
  -5   6   1    1.58    0.43
   5  -6  -1    2.42    0.69
   5  -6  -1    2.64    0.82
   5  -6  -1    1.34    0.35
   5  -6  -1    1.53    0.37
   5  -6  -1    1.35    0.34
  -7   6   2    1.46    0.68
  -7   6   2    3.13    0.86
  -7   6   2    3.44    1.09
  -7   6   2    2.12    0.62
   7  -6  -2    2.75    0.60
   7  -6  -2    2.04    0.67
  -9   6   3    5.67    1.55
  -9   6   3    3.17    1.05
  -9   6   3    4.28    1.43
  -9   6   3    3.06    1.11
   9  -6  -3    3.68    0.90
   9  -6  -3    3.69    1.17
   4   7  -4   -0.69    0.57
   4   7  -4    1.28    0.78
   4   7  -4    0.15    0.50
  -4  -7   4    0.79    0.80
  -4  -7   4    1.84    0.86
   2   7  -3   12.20    1.24
   2   7  -3   12.25    1.23
   2   7  -3   12.18    1.37
   2   7  -3   14.42    1.51
  -2  -7   3   13.67    1.45
  -2  -7   3   11.21    0.99
  -2  -7   3   11.09    1.37
   0   7  -2    0.88    0.59
   0   7  -2    0.38    0.51
   0   7  -2    1.27    0.47
   0   7  -2    1.42    0.35
   0   7  -2    1.92    0.51
   0   7  -2    1.67    0.36
   0  -7   2    1.92    0.42
   0  -7   2    1.17    0.66
   0  -7   2    1.99    0.78
   0  -7   2    0.71    0.36
   0  -7   2    1.97    0.70
   0  -7   2    2.12    0.41
  -2   7  -1    0.64    0.36
  -2   7  -1    0.13    0.21
  -2   7  -1   -0.36    0.37
  -2   7  -1    0.20    0.35
  -2   7  -1    0.12    0.24
   2  -7   1    0.56    0.43
   2  -7   1   -0.27    0.29
   2  -7   1    0.25    0.32
   2  -7   1   -0.01    0.37
   2  -7   1    0.05    0.34
  -4   7   0    1.45    0.38
  -4   7   0    0.83    0.46
  -4   7   0    0.74    0.47
  -4   7   0    1.67    0.40
   4  -7   0    0.40    0.39
   4  -7   0    1.07    0.41
   4  -7   0    1.74    0.61
   4  -7   0    1.69    0.49
   4  -7   0    1.33    0.54
   4  -7   0    1.45    0.40
  -6   7   1   -0.51    0.36
  -6   7   1   -0.47    0.26
  -6   7   1    0.11    0.37
  -6   7   1   -0.09    0.31
  -6   7   1   -0.09    0.40
   6  -7  -1    0.61    0.21
   6  -7  -1    0.03    0.42
   6  -7  -1    0.07    0.36
   6  -7  -1    0.07    0.56
  -8   7   2    2.53    0.83
  -8   7   2    2.44    1.02
  -8   7   2    1.63    0.69
  -8   7   2    1.57    0.99
  -8   7   2    2.60    1.05
   8  -7  -2    1.71    1.01
   8  -7  -2    2.21    0.75
   3   8  -4    1.00    0.72
   3   8  -4   -0.38    0.57
   3   8  -4   -0.40    0.44
  -3  -8   4    0.21    0.86
  -3  -8   4   -0.44    0.48
   1   8  -3    4.72    1.09
   1   8  -3    4.88    1.14
  -1  -8   3    4.14    1.07
  -1   8  -2    5.65    1.08
  -1   8  -2    4.95    0.65
  -1   8  -2    4.58    0.79
  -1   8  -2    5.05    1.09
  -1   8  -2    4.04    0.58
  -1   8  -2    5.00    0.62
   1  -8   2    5.65    1.13
   1  -8   2    5.50    1.09
   1  -8   2    5.52    1.17
   1  -8   2    4.60    0.85
  -3   8  -1   70.11    4.36
  -3   8  -1   66.54    3.79
  -3   8  -1   68.75    3.78
  -3   8  -1   69.46    4.30
  -3   8  -1   69.13    4.22
   3  -8   1   76.61    4.44
   3  -8   1   76.99    4.31
   3  -8   1   77.84    4.43
   3  -8   1   62.49    3.98
   3  -8   1   74.01    4.09
  -5   8   0    9.07    1.21
  -5   8   0   10.41    1.22
  -5   8   0   10.62    0.93
  -5   8   0    9.66    0.92
   5  -8   0    8.41    0.95
   5  -8   0    7.68    0.85
   5  -8   0   12.28    1.24
   5  -8   0    8.53    0.87
   5  -8   0   10.18    0.98
   5  -8   0    8.92    1.25
  -7   8   1    3.02    0.81
  -7   8   1    2.24    0.65
  -7   8   1    2.56    0.68
  -7   8   1    5.45    1.34
  -7   8   1    1.91    0.92
   7  -8  -1    2.41    0.84
   7  -8  -1    2.52    0.94
  -9   8   2    0.74    0.99
  -9   8   2    1.81    0.96
  -9   8   2   -0.41    0.57
   9  -8  -2   -0.47    0.72
   2   9  -4    0.24    0.78
   2   9  -4    0.26    0.53
   2   9  -4    1.46    0.71
  -2  -9   4    1.25    0.78
  -2  -9   4   -0.52    0.77
  -2  -9   4    0.14    0.92
   0   9  -3    1.29    0.55
   0   9  -3    1.64    0.90
   0   9  -3    1.08    0.63
   0  -9   3    1.74    0.80
   0  -9   3   -0.08    0.37
   0  -9   3    1.16    0.44
   0  -9   3    0.36    0.34
   0  -9   3    0.81    0.39
   0  -9   3    1.05    0.67
   0  -9   3    0.14    0.72
  -2   9  -2    1.33    0.47
  -2   9  -2    2.18    0.63
  -2   9  -2    1.75    0.79
  -2   9  -2    1.43    0.41
  -2   9  -2    1.07    0.53
   2  -9   2    1.47    0.60
   2  -9   2    0.76    0.51
   2  -9   2    1.28    0.81
  -4   9  -1    8.04    1.39
  -4   9  -1    8.41    1.42
  -4   9  -1    4.99    0.70
  -4   9  -1    6.73    0.75
   4  -9   1    6.36    1.10
   4  -9   1    6.95    1.44
   4  -9   1    7.59    1.35
   4  -9   1    7.38    1.31
  -6   9   0    1.38    0.55
  -6   9   0    0.21    0.37
  -6   9   0    1.32    0.71
  -6   9   0    0.67    0.56
   6  -9   0   -0.66    0.47
   6  -9   0    0.71    0.53
   6  -9   0    0.82    0.50
   6  -9   0    0.73    0.47
   6  -9   0    2.91    1.07
   6  -9   0    2.00    0.64
  -8   9   1    0.85    0.70
  -8   9   1    0.63    0.96
  -8   9   1   -1.10    0.86
   8  -9  -1    0.99    0.68
   1  10  -4    4.52    1.21
   1  10  -4    5.28    1.35
   1  10  -4    4.74    1.09
  -1 -10   4   10.14    1.89
  -1 -10   4    8.17    1.70
  -1 -10   4    7.79    1.60
  -1  10  -3    1.05    0.52
  -1  10  -3    0.64    0.79
  -1  10  -3    1.44    1.03
  -1  10  -3    1.24    0.52
   1 -10   3    1.85    0.56
   1 -10   3    2.28    0.71
   1 -10   3    3.09    0.97
   1 -10   3    1.38    0.79
   1 -10   3    0.03    0.95
   1 -10   3    2.70    0.89
  -3  10  -2   -0.70    0.41
  -3  10  -2   -0.11    0.37
  -3  10  -2    0.32    0.33
  -3  10  -2    0.46    0.55
  -3  10  -2    0.89    0.59
   3 -10   2    0.23    0.55
   3 -10   2    0.34    0.54
   3 -10   2    0.96    0.73
   3 -10   2    0.56    0.68
   3 -10   2    0.59    0.66
  -5  10  -1   -0.44    0.65
  -5  10  -1    0.01    0.45
  -5  10  -1   -0.07    0.30
  -5  10  -1    0.07    0.35
   5 -10   1   -0.98    0.53
   5 -10   1    0.51    0.71
   5 -10   1   -1.14    0.47
   5 -10   1   -0.60    0.58
  -7  10   0    0.27    0.48
  -7  10   0    0.42    0.66
  -7  10   0    0.68    0.68
   7 -10   0    0.80    0.70
   7 -10   0    0.43    0.55
   0  11  -4    1.98    0.83
   0  11  -4    1.95    1.17
   0  11  -4    2.12    0.84
   0 -11   4    4.35    1.37
   0 -11   4    2.11    1.22
   0 -11   4    2.00    1.27
  -2  11  -3   -0.01    0.59
  -2  11  -3   -0.21    0.74
  -2  11  -3   -0.17    0.34
   2 -11   3   -0.04    0.92
   2 -11   3    0.78    1.06
   2 -11   3   -0.22    0.71
   2 -11   3   -0.43    0.65
   2 -11   3    0.11    0.65
   2 -11   3    0.17    0.61
  -4  11  -2    0.41    0.75
  -4  11  -2    0.06    0.56
  -4  11  -2    1.20    0.49
  -4  11  -2    0.82    0.42
   4 -11   2    0.64    0.74
   4 -11   2    2.40    0.96
   4 -11   2    1.29    0.81
   4 -11   2    1.17    0.86
   4 -11   2   -1.23    0.69
  -6  11  -1    0.88    0.88
  -6  11  -1    0.42    0.42
  -6  11  -1    0.89    0.63
  -6  11  -1    0.60    0.89
   6 -11   1   -0.42    0.97
   6 -11   1    0.50    0.92
   6 -11   1    0.06    0.72
   6 -11   1   -0.26    0.97
   6 -11   1    0.45    0.66
   5 -11   5   -0.33    0.89
   5 -11   5    0.09    0.78
   5 -11   5    0.77    0.94
   5 -11   5   -0.17    0.74
   5 -11   5   -1.09    0.62
   5 -11   5    2.14    0.93
   3 -11   6    0.28    0.77
   3 -11   6    0.23    0.98
   3 -11   6    0.29    0.85
   3 -11   6   -0.58    0.83
   3 -11   6    1.61    0.95
   3 -11   6   -0.88    0.77
  -3  11  -6    0.77    0.26
  -3  11  -6    0.15    0.20
  -3  11  -6    0.81    0.66
   6 -10   4    0.13    0.61
   6 -10   4    1.46    0.76
   6 -10   4    1.37    0.68
   6 -10   4    0.96    0.94
   6 -10   4    0.83    0.62
   6 -10   4    0.35    0.93
  -6  10  -4    0.48    0.42
  -6  10  -4    0.48    0.39
  -6  10  -4    0.23    0.68
  -6  10  -4    1.26    0.82
   4 -10   5    0.62    0.71
   4 -10   5    1.12    0.77
   4 -10   5    1.63    0.86
   4 -10   5    1.34    0.80
   4 -10   5   -0.09    0.65
   4 -10   5    0.25    0.85
  -4  10  -5    1.57    0.70
   2 -10   6    1.31    0.84
   2 -10   6    0.64    0.67
   2 -10   6    0.06    0.73
   2 -10   6    0.44    0.71
   2 -10   6    0.35    0.70
   2 -10   6   -0.59    0.63
  -2  10  -6    0.67    0.68
  -2  10  -6    0.30    0.30
  -2  10  -6    0.37    0.61
  -2  10  -6    0.07    0.36
   0 -10   7    0.28    0.91
   0 -10   7    0.40    0.79
   0  10  -7    0.33    0.65
   0  10  -7    1.01    0.91
   0  10  -7    0.40    0.64
   0  10  -7    0.27    0.51
   7  -9   3    4.74    1.31
   7  -9   3    3.53    1.26
   7  -9   3    4.36    0.88
   7  -9   3    2.99    0.72
   7  -9   3    3.70    1.27
  -7   9  -3    5.15    1.28
  -7   9  -3    5.70    1.34
  -7   9  -3    4.60    1.26
  -7   9  -3    3.01    1.16
  -7   9  -3    4.17    1.45
   5  -9   4    4.23    1.02
   5  -9   4    4.98    1.03
   5  -9   4    4.44    1.04
   5  -9   4    2.99    0.89
   5  -9   4    4.77    1.20
   5  -9   4    4.15    1.11
  -5   9  -4    3.78    1.04
  -5   9  -4    3.96    1.04
  -5   9  -4    5.32    1.06
  -5   9  -4    3.60    0.44
  -5   9  -4    3.15    0.44
   3  -9   5    1.51    0.75
   3  -9   5    0.73    0.71
   3  -9   5    1.09    0.72
   3  -9   5    1.18    0.73
   3  -9   5    2.22    0.80
   3  -9   5    1.77    0.75
  -3   9  -5    2.07    0.67
  -3   9  -5    1.31    0.18
  -3   9  -5    1.14    0.18
  -3   9  -5    1.31    0.63
  -3   9  -5    1.65    0.76
   1  -9   6    8.07    1.53
   1  -9   6    7.22    1.48
   1  -9   6    8.72    1.25
   1  -9   6    9.96    1.31
   1  -9   6    6.44    1.14
  -1   9  -6    7.74    1.54
  -1   9  -6    7.17    1.30
  -1   9  -6    7.38    0.80
  -1   9  -6    7.00    0.75
  -1  -9   7    5.61    1.55
  -1  -9   7    4.64    1.35
   1   9  -7    5.57    1.11
   1   9  -7    5.31    1.22
   1   9  -7    3.96    1.34
   1   9  -7    5.94    1.07
   8  -8   2   -0.27    0.68
   8  -8   2    0.84    0.71
   8  -8   2   -0.88    0.60
  -8   8  -2    1.72    0.96
  -8   8  -2    0.12    0.71
  -8   8  -2    0.81    0.64
  -8   8  -2    0.10    0.75
   6  -8   3   -0.47    0.38
   6  -8   3    0.57    0.54
   6  -8   3   -0.57    0.47
   6  -8   3    0.07    0.66
   6  -8   3   -0.73    0.48
  -6   8  -3   -0.02    0.65
  -6   8  -3   -0.07    0.55
  -6   8  -3    1.68    0.83
  -6   8  -3   -0.25    0.36
  -6   8  -3   -0.09    0.31
   4  -8   4    0.22    0.47
   4  -8   4    0.09    0.45
   4  -8   4    0.19    0.50
   4  -8   4    0.62    0.64
   4  -8   4   -0.08    0.52
   4  -8   4    0.05    0.39
  -4   8  -4   -0.03    0.16
  -4   8  -4   -0.09    0.12
  -4   8  -4    0.11    0.52
  -4   8  -4    0.01    0.45
  -4   8  -4    0.04    0.47
  -4   8  -4    0.10    0.40
   2  -8   5    7.20    1.22
   2  -8   5    4.84    0.98
   2  -8   5    5.73    1.10
   2  -8   5    5.28    1.04
   2  -8   5    7.05    1.33
   2  -8   5    8.12    1.25
  -2   8  -5    2.77    0.76
  -2   8  -5    3.81    0.37
  -2   8  -5    3.64    0.38
  -2   8  -5    4.68    1.05
  -2   8  -5    3.21    0.74
   0  -8   6    4.94    0.86
   0  -8   6    4.47    1.12
   0  -8   6    4.02    1.12
   0  -8   6    4.66    0.74
   0   8  -6    7.47    1.45
   0   8  -6    5.38    0.83
   0   8  -6    4.63    1.02
   0   8  -6    4.79    0.81
  -2  -8   7   -0.29    0.72
  -2  -8   7   -0.10    0.53
   2   8  -7    0.10    0.55
   2   8  -7    0.46    0.65
   2   8  -7    0.46    0.73
   2   8  -7    0.99    0.71
   9  -7   1    0.55    0.76
   9  -7   1    0.55    0.93
   9  -7   1    0.39    0.77
  -9   7  -1    0.91    1.01
  -9   7  -1    2.31    1.01
  -9   7  -1    0.79    0.73
  -9   7  -1    1.02    0.72
   7  -7   2    1.07    0.69
   7  -7   2    0.16    0.22
   7  -7   2   -0.80    0.44
   7  -7   2    1.76    0.75
   7  -7   2    0.66    0.37
  -7   7  -2    0.46    0.54
  -7   7  -2    0.70    0.46
  -7   7  -2    0.97    0.75
  -7   7  -2    0.20    0.64
  -7   7  -2   -0.87    0.64
   5  -7   3   25.62    2.14
   5  -7   3   25.48    1.75
   5  -7   3   23.46    1.70
   5  -7   3   22.12    1.69
   5  -7   3   24.42    2.16
   5  -7   3   23.88    1.72
   5  -7   3   26.16    1.96
  -5   7  -3   23.48    1.87
  -5   7  -3   23.88    2.09
  -5   7  -3   22.00    1.52
  -5   7  -3   23.89    1.54
  -5   7  -3   22.07    1.68
  -5   7  -3   24.24    2.03
   3  -7   4   13.92    1.43
   3  -7   4   13.98    1.29
   3  -7   4   13.60    1.29
   3  -7   4   15.67    1.45
   3  -7   4   15.55    1.43
   3  -7   4   15.43    1.41
  -3   7  -4   14.63    1.35
  -3   7  -4   14.74    1.37
  -3   7  -4   13.49    1.36
  -3   7  -4   13.85    1.38
  -3   7  -4   15.62    1.34
   1  -7   5    0.84    0.51
   1  -7   5    0.74    0.47
   1  -7   5    1.04    0.52
   1  -7   5    0.85    0.63
   1  -7   5    0.88    0.58
  -1   7  -5    1.31    0.59
  -1   7  -5    0.49    0.42
  -1   7  -5    0.59    0.48
  -1   7  -5    0.46    0.26
  -1   7  -5    0.85    0.28
  -1  -7   6    2.94    0.51
  -1  -7   6    2.70    0.47
  -1  -7   6    2.37    0.52
  -1  -7   6    2.46    0.46
  -1  -7   6    2.51    0.91
  -1  -7   6    2.90    1.02
   1   7  -6    2.96    0.67
   1   7  -6    3.25    0.65
   1   7  -6    1.66    0.73
   1   7  -6    3.11    1.06
   1   7  -6    2.35    0.84
  -3  -7   7    3.46    1.16
  -3  -7   7    2.94    1.14
   3   7  -7    2.30    1.00
   3   7  -7    2.11    0.78
   3   7  -7    1.75    0.82
   8  -6   1    2.63    1.02
   8  -6   1    3.10    0.99
   8  -6   1    3.07    0.99
   8  -6   1    1.95    0.58
  -8   6  -1    4.40    1.18
  -8   6  -1    2.89    0.95
  -8   6  -1    3.01    0.78
  -8   6  -1    0.73    0.85
  -8   6  -1    3.81    1.22
   6  -6   2    0.84    0.34
   6  -6   2    1.35    0.72
   6  -6   2    0.40    0.42
   6  -6   2    0.43    0.37
   6  -6   2    0.62    0.26
   6  -6   2    1.10    0.58
  -6   6  -2   -0.31    0.36
  -6   6  -2    0.98    0.46
  -6   6  -2    1.26    0.48
  -6   6  -2    1.40    0.71
  -6   6  -2    0.56    0.57
   4  -6   3    8.86    0.85
   4  -6   3    7.38    1.05
   4  -6   3    6.87    0.85
   4  -6   3    6.92    0.78
   4  -6   3    7.13    0.79
   4  -6   3    7.04    0.93
  -4   6  -3    6.52    0.58
  -4   6  -3    6.65    0.87
  -4   6  -3    6.09    0.74
  -4   6  -3    6.79    1.15
  -4   6  -3    6.54    0.59
  -4   6  -3    6.07    0.91
   2  -6   4    2.86    0.67
   2  -6   4    1.53    0.55
   2  -6   4    1.58    0.48
   2  -6   4    1.87    0.60
   2  -6   4    0.97    0.47
   2  -6   4    2.60    0.66
   2  -6   4    0.55    0.41
  -2   6  -4    1.53    0.46
  -2   6  -4    1.54    0.50
  -2   6  -4    1.39    0.49
   0  -6   5    8.69    0.84
   0  -6   5    8.43    1.06
   0  -6   5    8.43    1.04
   0  -6   5    8.57    0.85
   0  -6   5    7.43    0.77
   0   6  -5    9.75    1.11
   0   6  -5   10.20    0.78
   0   6  -5    8.16    1.02
   0   6  -5    9.84    0.80
   0   6  -5    9.52    1.11
  -2  -6   6    2.45    0.85
  -2  -6   6    1.91    0.23
  -2  -6   6    2.77    0.90
  -2  -6   6    1.94    0.24
  -2  -6   6    1.91    0.24
  -2  -6   6    2.11    0.33
   2   6  -6    2.80    0.65
   2   6  -6    1.88    0.71
   2   6  -6    2.35    0.63
   2   6  -6    2.44    0.88
   2   6  -6    2.93    0.88
  -4  -6   7    1.27    0.84
  -4  -6   7    1.44    0.91
  -4  -6   7    0.17    0.62
   4   6  -7    0.67    0.84
   4   6  -7    2.39    0.94
   4   6  -7    2.39    0.95
   4   6  -7    0.92    0.67
   9  -5   0    1.04    1.03
   9  -5   0   -0.69    0.59
   9  -5   0   -0.26    0.71
  -9   5   0    1.04    0.89
  -9   5   0   -0.16    0.82
  -9   5   0   -0.13    0.74
  -9   5   0    0.32    0.87
   7  -5   1    0.07    0.54
   7  -5   1    0.23    0.31
   7  -5   1    0.29    0.32
   7  -5   1    0.54    0.55
  -7   5  -1    0.10    0.56
  -7   5  -1   -0.44    0.45
  -7   5  -1    0.08    0.47
  -7   5  -1   -0.31    0.55
  -7   5  -1   -0.17    0.44
   5  -5   2   -0.10    0.19
   5  -5   2    0.35    0.55
   5  -5   2    0.03    0.27
   5  -5   2   -0.05    0.23
   5  -5   2    0.05    0.44
  -5   5  -2    0.37    0.25
  -5   5  -2    0.04    0.37
  -5   5  -2   -0.11    0.27
  -5   5  -2    0.10    0.43
  -5   5  -2   -0.08    0.26
  -5   5  -2    0.03    0.44
   3  -5   3    2.62    0.55
   3  -5   3    3.14    0.69
   3  -5   3    1.98    0.70
   3  -5   3    3.00    0.70
   3  -5   3    2.46    0.61
   3  -5   3    2.33    0.54
   3  -5   3    2.94    0.53
   3  -5   3    2.73    0.69
  -3   5  -3    2.87    0.65
  -3   5  -3    2.64    0.86
  -3   5  -3    1.97    0.27
   1  -5   4    8.60    0.98
   1  -5   4    9.83    0.92
   1  -5   4    8.54    0.86
   1  -5   4    9.10    0.92
   1  -5   4   10.75    0.93
   1  -5   4    9.33    1.00
   1  -5   4   10.77    0.89
   1  -5   4    8.11    0.93
  -1   5  -4    8.89    0.85
  -1   5  -4   10.26    1.03
  -1   5  -4    9.84    0.96
  -1   5  -4   10.11    0.62
  -1   5  -4    9.96    1.01
  -1   5  -4    9.16    0.61
  -1  -5   5   22.43    1.47
  -1  -5   5   23.17    1.46
  -1  -5   5   23.80    1.49
  -1  -5   5   20.46    1.63
  -1  -5   5   23.58    1.91
  -1  -5   5   26.04    1.97
   1   5  -5   23.63    1.88
   1   5  -5   27.70    1.99
   1   5  -5   26.40    1.78
   1   5  -5   24.15    1.61
   1   5  -5   25.77    1.66
  -3  -5   6   21.26    1.89
  -3  -5   6   20.03    1.53
  -3  -5   6   21.50    1.93
   3   5  -6   25.16    1.91
   3   5  -6   20.54    1.93
   3   5  -6   19.42    1.70
   3   5  -6   20.47    1.88
   3   5  -6   20.96    1.75
  -5  -5   7   -0.68    0.55
  -5  -5   7   -0.51    0.68
   5   5  -7   -0.08    0.59
   5   5  -7   -0.22    0.55
   5   5  -7   -0.84    1.19
   5   5  -7   -0.56    0.40
   8  -4   0    0.26    0.56
   8  -4   0   -0.03    0.36
   8  -4   0   -0.53    0.50
   8  -4   0   -0.60    0.43
   8  -4   0    0.37    0.52
  -8   4   0    0.84    0.71
  -8   4   0    0.60    0.62
  -8   4   0    0.69    0.70
  -8   4   0   -0.36    0.96
  -8   4   0   -0.47    0.56
  -8   4   0    1.07    0.81
   6  -4   1   -0.14    0.21
   6  -4   1    0.12    0.55
   6  -4   1    0.27    0.22
   6  -4   1    0.40    0.34
   6  -4   1   -0.13    0.31
  -6   4  -1   -0.23    0.38
  -6   4  -1   -0.02    0.36
  -6   4  -1    0.13    0.50
  -6   4  -1   -0.12    0.22
  -6   4  -1    0.91    0.54
   4  -4   2   31.97    1.89
   4  -4   2   32.54    1.87
   4  -4   2   32.16    2.31
   4  -4   2   30.79    2.13
   4  -4   2   32.27    1.86
   4  -4   2   32.10    2.11
  -4   4  -2   33.16    1.92
  -4   4  -2   31.72    2.07
  -4   4  -2   33.96    2.17
  -4   4  -2   35.68    2.30
  -4   4  -2   30.69    1.96
  -4   4  -2   36.48    2.39
  -4   4  -2   32.33    1.97
   2  -4   3   80.74    4.55
   2  -4   3   78.92    4.50
   2  -4   3   76.59    4.28
   2  -4   3   83.03    4.40
   2  -4   3   83.69    4.32
   2  -4   3   78.03    4.44
   2  -4   3   79.58    4.30
   2  -4   3   80.66    4.44
  -2   4  -3   82.36    4.32
  -2   4  -3   87.46    4.56
  -2   4  -3   77.42    4.00
  -2   4  -3   82.16    4.45
  -2   4  -3   78.65    4.00
  -2   4  -3   78.64    4.44
  -2   4  -3   81.56    4.41
   0  -4   4   35.18    2.28
   0  -4   4   37.87    2.30
   0  -4   4   35.05    2.05
   0  -4   4   33.68    2.28
   0  -4   4   35.31    2.09
   0  -4   4   34.60    2.05
   0  -4   4   37.31    2.28
   0  -4   4   35.00    2.10
   0  -4   4   35.27    2.11
   0   4  -4   34.83    1.99
   0   4  -4   34.59    2.12
   0   4  -4   33.80    2.27
   0   4  -4   33.58    2.07
   0   4  -4   38.13    2.30
   0   4  -4   35.12    1.97
  -2  -4   5   52.25    2.93
  -2  -4   5   57.06    3.53
  -2  -4   5   52.05    3.28
  -2  -4   5   59.19    3.52
  -2  -4   5   54.44    2.95
   2   4  -5   56.02    2.96
   2   4  -5   58.93    3.53
   2   4  -5   53.34    2.96
   2   4  -5   56.06    3.32
   2   4  -5   58.00    3.39
   2   4  -5   63.53    3.57
  -4  -4   6   -0.02    0.45
  -4  -4   6   -0.34    0.39
  -4  -4   6    0.10    0.15
  -4  -4   6    0.21    0.15
   4   4  -6    0.27    0.47
   4   4  -6    0.89    0.52
   4   4  -6    0.10    0.37
   4   4  -6    0.14    0.53
   4   4  -6    0.03    0.17
   4   4  -6   -0.22    0.49
  -6  -4   7    2.64    1.14
  -6  -4   7    2.91    1.08
   6   4  -7    0.94    0.63
   6   4  -7    1.35    0.83
   6   4  -7    1.38    0.78
   9  -3  -1    0.42    0.72
   9  -3  -1    1.13    0.79
   9  -3  -1   -1.05    0.62
  -9   3   1    0.58    0.72
  -9   3   1    0.42    0.82
  -9   3   1    2.17    0.93
  -9   3   1    0.32    0.63
   7  -3   0    6.45    1.21
   7  -3   0    1.10    0.65
  -7   3   0    2.40    0.71
  -7   3   0    0.51    0.57
  -7   3   0    5.53    1.12
  -7   3   0    4.42    0.89
  -7   3   0    0.50    0.56
   5  -3   1   13.22    1.20
   5  -3   1   12.40    0.97
   5  -3   1   12.02    0.81
   5  -3   1   12.62    1.30
  -5   3  -1   12.19    0.77
  -5   3  -1   11.44    0.80
  -5   3  -1   11.00    1.14
  -5   3  -1   12.06    1.07
  -5   3  -1   10.95    1.19
   3  -3   2   80.48    4.21
   3  -3   2   77.30    4.39
   3  -3   2   85.85    4.44
   3  -3   2   83.96    4.76
   3  -3   2   83.00    4.21
   3  -3   2   81.97    4.62
   3  -3   2   82.23    4.52
   3  -3   2   82.31    4.76
  -3   3  -2   97.79    4.77
  -3   3  -2   85.77    4.45
  -3   3  -2   94.33    4.83
  -3   3  -2   84.49    4.44
  -3   3  -2   89.44    4.44
  -3   3  -2   85.99    4.64
  -3   3  -2   83.60    4.51
   1  -3   3   47.60    2.60
   1  -3   3   45.47    2.74
   1  -3   3   49.54    2.77
   1  -3   3   47.85    2.76
   1  -3   3   47.52    2.75
   1  -3   3   47.40    2.70
   1  -3   3   46.55    2.70
   1  -3   3   47.96    2.68
  -1   3  -3   48.39    2.68
  -1   3  -3   47.08    2.77
  -1   3  -3   48.12    2.44
  -1   3  -3   50.69    2.78
  -1   3  -3   48.56    2.75
  -1   3  -3   47.89    2.44
  -1   3  -3   48.53    2.70
  -1   3  -3   49.26    2.61
  -1  -3   4   16.69    1.21
  -1  -3   4   23.04    1.68
  -1  -3   4   17.83    1.12
  -1  -3   4   16.75    1.13
  -1  -3   4   17.20    1.37
  -1  -3   4   17.79    1.12
   1   3  -4   17.92    1.23
   1   3  -4   17.33    1.13
   1   3  -4   16.89    1.18
   1   3  -4   16.84    1.34
   1   3  -4   19.36    1.27
   1   3  -4   19.65    1.38
   1   3  -4   17.34    1.11
   1   3  -4   18.21    1.53
  -3  -3   5    5.66    0.51
  -3  -3   5    6.21    0.71
  -3  -3   5    5.57    0.48
  -3  -3   5    6.91    1.13
  -3  -3   5    5.67    0.79
   3   3  -5    5.96    0.76
   3   3  -5    6.18    0.83
   3   3  -5    4.60    0.49
   3   3  -5    5.86    0.81
   3   3  -5    4.05    0.45
   3   3  -5    6.20    0.81
   3   3  -5    5.48    0.90
  -5  -3   6    2.08    0.39
  -5  -3   6    1.71    0.39
  -5  -3   6    1.55    0.75
  -5  -3   6    4.23    1.00
  -5  -3   6    1.55    0.54
   5   3  -6    2.50    0.83
   5   3  -6    2.05    0.45
   5   3  -6    2.58    0.78
   5   3  -6    1.06    0.54
   5   3  -6    1.72    0.70
  -7  -3   7   -0.14    0.90
  -7  -3   7    0.14    0.71
   7   3  -7    0.26    0.55
   7   3  -7   -0.48    0.45
   7   3  -7    1.84    0.91
   8  -2  -1    0.98    0.74
   8  -2  -1   -0.05    0.39
   8  -2  -1    0.69    0.63
   8  -2  -1    1.19    0.87
   8  -2  -1    0.02    0.59
  -8   2   1    0.12    0.69
  -8   2   1   -1.17    0.54
  -8   2   1    0.03    0.61
  -8   2   1    0.82    0.95
  -8   2   1    1.25    0.68
  -8   2   1   -1.34    1.20
   6  -2   0   22.61    1.45
   6  -2   0   22.13    1.90
   6  -2   0   24.62    1.96
   6  -2   0   23.33    1.73
  -6   2   0   23.88    1.84
  -6   2   0   20.90    1.77
  -6   2   0   25.47    1.95
  -6   2   0   21.50    1.42
  -6   2   0   23.68    1.88
  -6   2   0   24.49    1.93
   4  -2   1   40.99    2.71
   4  -2   1   43.45    2.33
   4  -2   1   43.76    2.50
   4  -2   1   42.76    2.27
   4  -2   1   44.60    2.63
   4  -2   1   42.25    2.50
   4  -2   1   42.93    2.73
   4  -2   1   43.18    2.66
  -4   2  -1   41.72    2.26
  -4   2  -1   45.89    2.69
  -4   2  -1   44.41    2.68
  -4   2  -1   43.80    2.60
  -4   2  -1   40.84    2.71
   2  -2   2   10.57    0.91
   2  -2   2   14.07    0.72
   2  -2   2   10.57    0.70
   2  -2   2   10.73    0.70
   2  -2   2   10.18    0.91
   2  -2   2   15.14    0.98
   2  -2   2   10.58    0.95
   2  -2   2   11.28    0.91
  -2   2  -2   10.97    0.95
  -2   2  -2   13.76    0.97
  -2   2  -2   11.87    0.81
  -2   2  -2   12.38    0.94
  -2   2  -2   14.11    0.86
  -2   2  -2   12.01    0.78
  -2   2  -2   11.31    0.78
   0  -2   3   75.28    4.09
   0  -2   3   74.13    4.07
   0  -2   3   78.06    3.82
   0  -2   3   79.77    4.09
   0  -2   3   74.66    3.96
   0  -2   3   73.74    4.01
   0  -2   3   75.34    4.00
   0   2  -3   74.33    3.95
   0   2  -3   77.87    3.89
   0   2  -3   74.90    3.90
   0   2  -3   77.19    4.08
   0   2  -3   75.92    3.90
   0   2  -3   76.73    4.03
   0   2  -3   73.74    4.08
   0   2  -3   77.75    4.00
  -2  -2   4  132.28    6.74
  -2  -2   4  136.24    6.97
  -2  -2   4  126.40    6.60
  -2  -2   4  128.20    6.82
  -2  -2   4  127.20    6.88
  -2  -2   4  128.15    6.76
  -2  -2   4  129.66    6.58
   2   2  -4  135.35    6.81
   2   2  -4  127.54    6.60
   2   2  -4  126.13    6.87
   2   2  -4  136.89    6.88
   2   2  -4  129.47    6.58
   2   2  -4  130.66    6.82
   2   2  -4  123.10    6.86
   2   2  -4  130.27    6.79
  -4  -2   5    0.34    0.36
  -4  -2   5    0.24    0.43
  -4  -2   5    0.45    0.26
  -4  -2   5    0.87    0.45
  -4  -2   5    0.19    0.35
  -4  -2   5    0.17    0.20
   4   2  -5    0.14    0.25
   4   2  -5    0.46    0.39
   4   2  -5    0.47    0.42
   4   2  -5    0.36    0.48
   4   2  -5    0.25    0.29
   4   2  -5   -0.05    0.32
   4   2  -5    0.66    0.46
  -6  -2   6    6.24    1.16
  -6  -2   6    4.99    1.14
  -6  -2   6    6.40    1.16
  -6  -2   6    6.74    0.76
  -6  -2   6    6.73    0.81
   6   2  -6    6.49    1.46
   6   2  -6    6.82    1.37
   6   2  -6    5.66    1.14
  -8  -2   7    1.86    1.08
  -8  -2   7    0.24    0.85
   8   2  -7    2.46    1.11
   8   2  -7    1.20    0.87
   9  -1  -2   -0.65    0.70
   9  -1  -2    0.08    0.60
   9  -1  -2    1.39    0.98
   9  -1  -2    0.56    0.66
  -9   1   2    0.95    1.06
  -9   1   2    0.93    0.81
   7  -1  -1    4.22    1.01
   7  -1  -1    3.30    0.67
   7  -1  -1    4.05    0.96
   7  -1  -1    4.02    1.05
  -7   1   1    3.61    1.06
  -7   1   1    4.53    1.00
  -7   1   1    3.56    0.51
  -7   1   1    3.45    0.47
  -7   1   1    3.33    0.74
  -7   1   1    3.99    1.21
  -7   1   1    3.64    0.91
  -7   1   1    4.17    1.00
   5  -1   0    2.69    0.40
   5  -1   0    3.29    0.40
   5  -1   0    2.82    0.74
   5  -1   0    2.84    0.66
   5  -1   0    4.14    0.92
   5  -1   0    3.24    0.72
  -5   1   0    3.54    0.74
  -5   1   0    2.74    0.39
  -5   1   0    5.03    0.94
  -5   1   0    3.36    0.72
  -5   1   0    3.93    0.80
  -5   1   0    2.69    0.68
  -5   1   0    2.92    0.47
   3  -1   1    5.25    0.57
   3  -1   1    4.99    0.52
   3  -1   1    3.89    0.32
   3  -1   1    4.48    0.72
   3  -1   1    4.97    0.78
   3  -1   1    4.65    0.55
   3  -1   1    4.91    0.52
   3  -1   1    4.29    0.42
  -3   1  -1    5.53    0.56
  -3   1  -1    4.33    0.58
  -3   1  -1    4.33    0.50
  -3   1  -1    4.49    0.56
  -3   1  -1    4.65    0.32
  -3   1  -1    4.95    0.45
  -3   1  -1    5.44    0.56
  -3   1  -1    3.47    0.49
   1  -1   2   28.96    1.74
   1  -1   2   30.17    1.59
   1  -1   2   31.29    1.64
   1  -1   2   29.57    1.71
   1  -1   2   29.65    1.59
   1  -1   2   27.48    1.73
   1  -1   2   33.06    1.82
   1  -1   2   29.77    1.77
  -1   1  -2   31.15    1.67
  -1   1  -2   28.65    1.74
  -1   1  -2   36.38    1.85
  -1   1  -2   28.59    1.76
  -1   1  -2   33.43    1.81
  -1   1  -2   30.33    1.59
  -1   1  -2   31.64    1.60
  -1   1  -2   30.26    1.67
  -1  -1   3   27.98    1.65
  -1  -1   3   27.53    1.69
  -1  -1   3   30.77    1.73
  -1  -1   3   29.56    1.67
  -1  -1   3   27.52    1.72
  -1  -1   3   27.41    1.61
  -1  -1   3   29.03    1.71
  -1  -1   3   28.17    1.60
   1   1  -3   29.20    1.72
   1   1  -3   27.90    1.63
   1   1  -3   28.89    1.68
   1   1  -3   29.28    1.73
   1   1  -3   30.25    1.74
   1   1  -3   28.95    1.62
  -3  -1   4  115.30    5.89
  -3  -1   4  116.77    6.08
  -3  -1   4  112.90    5.95
  -3  -1   4  113.13    6.02
  -3  -1   4  112.43    6.14
  -3  -1   4  104.22    6.00
  -3  -1   4  111.82    6.06
  -3  -1   4  116.18    5.85
   3   1  -4  113.01    6.07
   3   1  -4  115.35    6.08
   3   1  -4  116.43    6.02
   3   1  -4  112.11    5.83
   3   1  -4  108.22    6.05
   3   1  -4  114.47    6.04
   3   1  -4  112.49    5.97
   3   1  -4  109.95    5.85
  -5  -1   5   -0.13    0.36
  -5  -1   5    0.41    0.30
  -5  -1   5    0.12    0.40
  -5  -1   5    0.40    0.27
  -5  -1   5    0.66    0.36
  -5  -1   5    0.50    0.33
   5   1  -5    0.62    0.42
   5   1  -5    0.40    0.30
   5   1  -5    0.00    0.38
   5   1  -5    0.58    0.47
   5   1  -5   -0.26    0.37
   5   1  -5    0.59    0.39
  -7  -1   6    3.66    0.89
  -7  -1   6    2.33    0.98
  -7  -1   6    3.62    0.82
  -7  -1   6    3.04    0.78
   7   1  -6    3.83    1.21
   7   1  -6    4.30    1.07
   7   1  -6    5.18    1.22
   8   0  -2    1.63    0.88
   8   0  -2    0.38    0.60
   8   0  -2   -0.50    0.45
   8   0  -2    0.74    0.69
   8   0  -2   -1.07    0.56
  -8   0   2   -0.25    0.43
  -8   0   2   -0.37    0.47
  -8   0   2   -0.34    0.58
   6   0  -1    1.15    0.51
   6   0  -1    0.62    0.51
   6   0  -1    1.22    0.50
   6   0  -1    0.71    0.42
   6   0  -1    1.46    0.71
  -6   0   1    0.83    0.38
  -6   0   1    0.84    0.53
  -6   0   1    1.09    0.54
  -6   0   1    1.02    0.38
  -6   0   1    0.46    0.44
  -6   0   1    1.19    0.67
  -6   0   1    0.69    0.41
  -6   0   1    1.82    0.55
   4   0   0   23.76    1.66
   4   0   0   22.33    1.60
   4   0   0   21.41    1.67
   4   0   0   24.49    1.69
   4   0   0   23.42    1.54
   4   0   0   21.30    1.57
   4   0   0   22.81    1.41
   4   0   0   24.64    1.48
  -4   0   0   22.43    1.64
  -4   0   0   22.40    1.53
  -4   0   0   22.59    1.41
  -4   0   0   22.09    1.44
  -4   0   0   22.76    1.62
  -4   0   0   23.52    1.60
  -4   0   0   24.54    1.75
  -4   0   0   22.76    1.66
   2   0   1    6.13    0.55
   2   0   1    6.24    0.56
   2   0   1    5.64    0.58
   2   0   1    6.60    0.60
   2   0   1    6.22    0.53
   2   0   1    7.59    0.63
   2   0   1    6.96    0.62
   2   0   1    6.27    0.55
   2   0   1    6.62    0.44
   2   0   1    6.94    0.60
  -2   0  -1    6.50    0.58
  -2   0  -1    6.06    0.63
  -2   0  -1    8.32    0.62
  -2   0  -1    6.09    0.56
  -2   0  -1    6.93    0.44
  -2   0  -1    6.58    0.54
  -2   0  -1    6.88    0.62
  -2   0  -1    6.34    0.61
   0   0   2  294.73   13.49
   0   0   2  261.37   13.51
   0   0   2  237.19   13.49
   0   0   2  285.36   13.46
   0   0   2  266.37   13.47
   0   0  -2  275.21   13.32
   0   0  -2  279.00   13.46
   0   0  -2  278.76   13.48
  -2   0   3   99.90    5.34
  -2   0   3  103.21    5.32
  -2   0   3  107.62    5.44
  -2   0   3   98.27    5.36
  -2   0   3   99.74    5.33
  -2   0   3  108.81    5.37
  -2   0   3  101.13    5.40
  -2   0   3  103.59    5.40
   2   0  -3  104.87    5.37
   2   0  -3  106.84    5.36
   2   0  -3  104.71    5.43
   2   0  -3  110.85    5.45
   2   0  -3   98.90    5.34
   2   0  -3  101.00    5.33
   2   0  -3   98.66    5.30
   2   0  -3  108.44    5.42
  -4   0   4   20.84    1.38
  -4   0   4   19.00    1.42
  -4   0   4   17.99    1.41
  -4   0   4   18.14    1.27
  -4   0   4   20.49    1.49
  -4   0   4   17.27    1.40
  -4   0   4   19.22    1.43
  -4   0   4   19.95    1.51
   4   0  -4   17.82    1.44
   4   0  -4   20.41    1.50
   4   0  -4   18.35    1.37
   4   0  -4   18.91    1.45
   4   0  -4   18.87    1.54
   4   0  -4   19.64    1.32
   4   0  -4   18.71    1.45
  -6   0   5    1.85    0.60
  -6   0   5    2.78    0.61
  -6   0   5    3.16    0.73
  -6   0   5    2.52    0.74
   6   0  -5    2.51    0.78
   6   0  -5    5.10    0.95
   6   0  -5    2.76    0.86
  -8   0   6   -0.14    0.59
  -8   0   6   -0.02    0.76
  -8   0   6    0.02    0.65
  -8   0   6   -0.60    0.56
  -8   0   6    0.46    0.68
   8   0  -6   -0.02    0.52
   8   0  -6    0.45    0.66
   8   0  -6   -0.54    0.74
   7   1  -2    0.13    0.48
   7   1  -2    0.37    0.44
   7   1  -2   -0.13    0.64
   7   1  -2   -0.24    0.42
  -7  -1   2    0.03    0.49
  -7  -1   2   -0.47    0.38
  -7  -1   2    0.07    0.69
   5   1  -1    1.81    0.45
   5   1  -1    2.07    0.52
   5   1  -1    2.49    0.64
   5   1  -1    0.83    0.55
   5   1  -1    2.12    0.52
   5   1  -1    1.59    0.49
  -5  -1   1    0.98    0.44
  -5  -1   1    1.86    0.52
  -5  -1   1    2.24    0.66
  -5  -1   1    1.81    0.58
   3   1   0    3.70    0.48
   3   1   0    2.75    0.50
   3   1   0    4.27    0.49
   3   1   0    4.68    0.60
   3   1   0    4.30    0.50
   3   1   0    3.58    0.80
   3   1   0    4.27    0.55
   3   1   0    4.41    0.46
   3   1   0    3.97    0.54
  -3  -1   0    4.51    0.63
  -3  -1   0    4.05    0.51
  -3  -1   0    3.59    0.53
  -3  -1   0    5.21    0.60
  -3  -1   0    3.93    0.55
  -3  -1   0    4.61    0.46
   1   1   1  346.45   17.49
   1   1   1  349.76   17.41
   1   1   1  356.11   17.50
  -1  -1  -1  361.22   17.66
  -1  -1  -1  359.78   17.51
  -1  -1  -1  360.30   17.52
  -1  -1  -1  345.06   17.46
  -1  -1  -1  351.95   17.41
  -1  -1  -1  349.90   17.40
  -1   1   2  347.30   16.04
  -1   1   2  308.47   16.03
   1  -1  -2  322.45   16.06
   1  -1  -2  318.28   16.02
  -3   1   3    4.99    0.56
  -3   1   3    4.72    0.46
  -3   1   3    4.64    0.53
  -3   1   3    4.65    0.59
  -3   1   3    5.18    0.58
  -3   1   3    4.96    0.55
  -3   1   3    5.08    0.58
  -3   1   3    4.73    0.43
   3  -1  -3    4.48    0.55
   3  -1  -3    4.92    0.57
   3  -1  -3    3.72    0.54
   3  -1  -3    4.38    0.47
   3  -1  -3    5.31    0.57
   3  -1  -3    3.71    0.44
   3  -1  -3    3.88    0.56
   3  -1  -3    3.85    0.50
  -5   1   4    1.18    0.48
  -5   1   4    1.09    0.28
  -5   1   4    1.58    0.48
  -5   1   4    1.59    0.55
  -5   1   4    0.99    0.39
  -5   1   4    1.51    0.34
  -5   1   4    1.10    0.44
   5  -1  -4    2.19    0.66
   5  -1  -4    1.88    0.54
   5  -1  -4    1.02    0.47
   5  -1  -4    1.33    0.33
   5  -1  -4    2.05    0.62
   5  -1  -4    0.90    0.49
  -7   1   5    0.74    0.57
  -7   1   5    0.51    0.35
  -7   1   5    1.47    0.72
  -7   1   5    0.97    0.68
  -7   1   5    0.61    0.38
  -7   1   5    0.58    0.61
   7  -1  -5    1.53    0.63
   7  -1  -5    2.56    0.83
  -9   1   6    0.54    0.87
  -9   1   6    0.65    0.87
  -9   1   6    0.37    0.72
  -9   1   6   -0.16    0.86
   9  -1  -6    1.55    0.87
   8   2  -3   -1.73    0.64
   8   2  -3   -0.34    0.66
   8   2  -3    0.41    0.75
   8   2  -3   -0.36    0.61
   8   2  -3   -0.34    0.59
  -8  -2   3   -0.24    0.80
  -8  -2   3   -0.20    0.66
  -8  -2   3    1.99    1.06
   6   2  -2    0.61    0.39
   6   2  -2    1.60    0.59
   6   2  -2    3.05    1.20
   6   2  -2    1.41    0.52
   6   2  -2    0.48    0.37
  -6  -2   2    2.07    0.78
  -6  -2   2    3.22    0.78
   4   2  -1    6.62    0.87
   4   2  -1    7.11    0.62
   4   2  -1    7.14    0.77
   4   2  -1    7.67    0.67
   4   2  -1    7.14    0.88
   4   2  -1    6.55    0.62
   4   2  -1    6.30    0.76
   4   2  -1    6.94    0.84
   4   2  -1    7.21    0.66
  -4  -2   1    6.96    0.78
  -4  -2   1    6.92    0.85
  -4  -2   1    7.53    0.85
  -4  -2   1    6.88    0.74
  -4  -2   1    6.70    0.80
  -4  -2   1    6.66    1.10
   2   2   0    4.64    0.73
   2   2   0    3.78    0.35
   2   2   0    3.60    0.37
   2   2   0    3.79    0.46
   2   2   0    2.83    0.43
   2   2   0    3.96    0.49
   2   2   0    4.00    0.63
   2   2   0    4.41    0.52
   2   2   0    3.95    0.35
  -2  -2   0    4.27    0.68
  -2  -2   0    4.40    0.70
  -2  -2   0    3.75    0.51
  -2  -2   0    3.38    0.50
  -2  -2   0    3.66    0.45
  -2  -2   0    3.88    0.52
   0   2   1   71.52    3.76
   0   2   1   73.46    3.79
   0   2   1   69.62    3.71
   0   2   1   68.98    3.79
   0   2   1   71.29    3.82
   0   2   1   76.40    3.80
   0  -2  -1   73.23    3.81
   0  -2  -1   69.57    3.71
   0  -2  -1   71.83    3.74
   0  -2  -1   69.84    3.73
   0  -2  -1   71.78    3.83
   0  -2  -1   75.45    3.81
   0  -2  -1   76.33    3.86
   0  -2  -1   72.76    3.77
   0  -2  -1   72.70    3.80
  -2   2   2   23.93    1.51
  -2   2   2   24.88    1.24
  -2   2   2   25.88    1.58
  -2   2   2   27.15    1.49
   2  -2  -2   24.61    1.51
   2  -2  -2   21.16    1.45
   2  -2  -2   23.19    1.44
   2  -2  -2   22.04    1.24
   2  -2  -2   25.08    1.56
  -4   2   3    0.99    0.44
  -4   2   3    0.73    0.38
  -4   2   3    0.63    0.30
  -4   2   3    0.86    0.20
  -4   2   3    0.47    0.37
  -4   2   3    0.97    0.32
  -4   2   3    0.36    0.31
  -4   2   3    0.89    0.39
   4  -2  -3    0.38    0.41
   4  -2  -3    0.78    0.30
   4  -2  -3    0.77    0.24
   4  -2  -3    0.60    0.19
   4  -2  -3    0.81    0.35
   4  -2  -3    0.37    0.31
   4  -2  -3    0.77    0.34
  -6   2   4    9.79    0.69
  -6   2   4   11.00    1.06
  -6   2   4   10.71    1.15
  -6   2   4   14.19    1.30
   6  -2  -4   10.54    1.09
   6  -2  -4   10.49    1.22
   6  -2  -4    9.35    1.02
  -8   2   5   -0.08    0.46
  -8   2   5    0.31    0.56
  -8   2   5    0.15    0.69
  -8   2   5    1.00    0.72
   8  -2  -5    1.21    0.69
   8  -2  -5   -0.21    0.62
   8  -2  -5    0.66    0.78
   7   3  -3    2.79    0.92
   7   3  -3    2.67    0.96
   7   3  -3    2.41    0.61
   7   3  -3    4.58    1.19
  -7  -3   3    3.71    0.98
  -7  -3   3    4.60    1.26
  -7  -3   3    3.60    1.01
   5   3  -2    5.69    1.02
   5   3  -2    4.09    1.00
   5   3  -2    4.20    0.50
   5   3  -2    3.98    0.48
   5   3  -2    6.25    1.20
   5   3  -2    3.74    0.44
   5   3  -2    4.40    0.90
  -5  -3   2    6.10    0.87
  -5  -3   2    4.30    0.92
  -5  -3   2    6.60    1.29
   3   3  -1    5.66    0.43
   3   3  -1    3.80    0.73
   3   3  -1    4.94    0.84
   3   3  -1    4.81    0.88
   3   3  -1    5.45    0.42
   3   3  -1    5.30    0.40
   3   3  -1    4.28    0.61
   3   3  -1    4.88    0.39
   3   3  -1    4.75    0.63
  -3  -3   1    4.50    0.62
  -3  -3   1    4.67    0.67
  -3  -3   1    4.89    0.67
  -3  -3   1    5.82    0.77
  -3  -3   1    4.44    0.63
  -3  -3   1    4.70    0.67
   1   3   0    0.79    0.35
   1   3   0    0.76    0.29
   1   3   0    0.72    0.25
   1   3   0    0.77    0.18
   1   3   0    0.91    0.22
   1   3   0    0.52    0.31
   1   3   0    0.78    0.37
   1   3   0    0.52    0.28
  -1  -3   0    0.68    0.38
  -1  -3   0    0.67    0.32
  -1  -3   0    0.88    0.19
  -1  -3   0    1.04    0.32
  -1  -3   0    0.61    0.34
  -1  -3   0    1.14    0.23
  -1  -3   0    0.70    0.27
  -1  -3   0    1.11    0.38
  -1   3   1    1.08    0.33
  -1   3   1    1.13    0.29
  -1   3   1    1.49    0.30
  -1   3   1    1.57    0.37
  -1   3   1    1.08    0.23
  -1   3   1    0.87    0.24
  -1   3   1    0.76    0.27
  -1   3   1    0.63    0.30
   1  -3  -1    0.76    0.20
   1  -3  -1    1.10    0.36
   1  -3  -1    1.03    0.31
   1  -3  -1    0.45    0.27
   1  -3  -1    1.06    0.23
   1  -3  -1    1.11    0.34
   1  -3  -1    0.99    0.22
   1  -3  -1    0.80    0.31
   1  -3  -1    1.21    0.34
  -3   3   2   16.71    1.37
  -3   3   2   16.84    1.32
   3  -3  -2   23.29    1.16
   3  -3  -2   19.60    1.42
   3  -3  -2   18.02    1.05
   3  -3  -2   18.36    1.22
  -5   3   3    1.10    0.49
  -5   3   3    2.87    0.57
  -5   3   3    1.06    0.55
  -5   3   3    1.00    0.53
  -5   3   3    1.02    0.36
   5  -3  -3    1.33    0.52
   5  -3  -3    1.59    0.38
   5  -3  -3    1.10    0.42
   5  -3  -3    1.56    0.54
  -7   3   4    1.40    0.59
  -7   3   4    2.14    0.84
  -7   3   4    0.89    0.72
  -7   3   4    2.20    0.86
  -7   3   4    1.28    0.70
   7  -3  -4    1.99    0.72
   7  -3  -4    2.03    0.72
   7  -3  -4    2.65    0.84
  -9   3   5    0.03    0.76
  -9   3   5    0.70    0.93
  -9   3   5    0.30    0.87
  -9   3   5    1.36    0.88
   9  -3  -5    1.92    1.05
   6   4  -3    1.26    0.84
   6   4  -3    1.45    0.68
   6   4  -3    0.76    0.64
  -6  -4   3    1.68    0.96
  -6  -4   3    1.09    0.71
  -6  -4   3    1.39    0.69
   4   4  -2    6.43    1.16
   4   4  -2    7.76    1.27
   4   4  -2    7.52    1.26
   4   4  -2    7.93    1.10
  -4  -4   2    6.61    0.96
  -4  -4   2    8.01    1.43
  -4  -4   2    6.68    0.98
   2   4  -1    0.02    0.36
   2   4  -1    0.46    0.28
   2   4  -1    0.44    0.34
   2   4  -1    0.36    0.35
  -2  -4   1    1.08    0.51
  -2  -4   1    0.14    0.30
  -2  -4   1    0.59    0.30
  -2  -4   1   -0.21    0.32
   0   4   0   40.15    2.25
   0   4   0   41.59    2.26
   0   4   0   42.49    2.45
   0   4   0   39.19    2.41
   0   4   0   41.21    2.41
   0   4   0   36.82    2.15
   0   4   0   37.96    2.18
   0   4   0   43.95    2.34
   0  -4   0   40.85    2.44
   0  -4   0   37.02    2.36
   0  -4   0   34.63    2.35
   0  -4   0   39.60    2.32
   0  -4   0   36.06    2.13
   0  -4   0   37.58    2.15
   0  -4   0   41.88    2.43
  -2   4   1   46.11    2.59
  -2   4   1   42.69    2.33
  -2   4   1   38.38    2.38
  -2   4   1   49.06    2.55
  -2   4   1   47.26    2.58
  -2   4   1   40.04    2.33
  -2   4   1   38.84    2.47
   2  -4  -1   38.89    2.22
   2  -4  -1   38.39    2.49
   2  -4  -1   48.36    2.58
   2  -4  -1   46.07    2.24
   2  -4  -1   39.61    2.49
   2  -4  -1   41.47    2.51
   2  -4  -1   39.06    2.18
   2  -4  -1   39.11    2.19
   2  -4  -1   47.18    2.47
  -4   4   2    3.59    0.51
  -4   4   2    4.29    0.69
  -4   4   2    4.44    0.84
  -4   4   2    3.86    0.71
  -4   4   2    4.91    1.08
   4  -4  -2    4.68    0.79
   4  -4  -2    4.43    0.70
   4  -4  -2    3.57    0.38
   4  -4  -2    3.60    0.37
   4  -4  -2    5.14    1.12
  -6   4   3    2.10    0.73
  -6   4   3    1.22    0.48
  -6   4   3    1.57    0.58
   6  -4  -3    1.76    0.70
   6  -4  -3    2.06    0.57
   6  -4  -3    0.99    0.51
   6  -4  -3    1.37    0.46
  -8   4   4    5.29    1.02
  -8   4   4    4.53    1.21
  -8   4   4    4.07    1.17
  -8   4   4    3.35    1.13
  -8   4   4    5.70    2.06
   8  -4  -4    3.52    1.05
   8  -4  -4    4.45    1.01
   8  -4  -4    3.54    0.94
   5   5  -3    3.60    1.01
   5   5  -3    5.18    1.33
   5   5  -3    5.06    1.19
   5   5  -3    2.33    1.00
  -5  -5   3    3.68    1.05
  -5  -5   3    3.27    0.94
  -5  -5   3    4.42    1.23
   3   5  -2    0.74    0.49
   3   5  -2    0.31    0.40
   3   5  -2    0.48    0.47
   3   5  -2    0.85    0.50
  -3  -5   2    0.74    0.59
  -3  -5   2    0.25    0.52
  -3  -5   2    1.02    0.42
   1   5  -1    7.07    0.84
   1   5  -1    7.41    0.78
   1   5  -1    8.15    0.78
   1   5  -1    7.73    0.88
   1   5  -1    9.45    0.99
   1   5  -1    8.86    0.56
   1   5  -1    7.92    0.53
  -1  -5   1    8.40    0.56
  -1  -5   1    8.26    0.54
  -1  -5   1    6.71    0.85
  -1  -5   1    7.37    0.70
  -1  -5   1    8.06    0.90
  -1   5   0    8.63    0.79
  -1   5   0    8.64    0.76
  -1   5   0    9.42    0.88
  -1   5   0    9.78    0.94
  -1   5   0    9.32    0.72
  -1   5   0    8.81    0.76
   1  -5   0    8.43    0.86
   1  -5   0    9.08    0.80
   1  -5   0   10.05    0.79
   1  -5   0    9.86    0.97
   1  -5   0    9.83    0.91
   1  -5   0    8.65    0.76
   1  -5   0    8.31    0.81
   1  -5   0    9.03    0.90
   1  -5   0    8.67    0.86
  -3   5   1    5.12    0.62
  -3   5   1    5.53    0.56
  -3   5   1    6.00    0.73
  -3   5   1    5.46    0.70
   3  -5  -1    6.14    0.49
   3  -5  -1    5.54    0.73
   3  -5  -1    6.10    0.74
   3  -5  -1    6.43    0.72
   3  -5  -1    5.57    0.74
   3  -5  -1    6.06    0.63
   3  -5  -1    6.25    0.63
   3  -5  -1    5.48    0.68
  -5   5   2   15.23    1.02
  -5   5   2   16.17    1.51
  -5   5   2   14.77    1.41
  -5   5   2   13.56    1.20
  -5   5   2   14.45    1.21
   5  -5  -2   14.48    0.86
   5  -5  -2   14.73    0.87
   5  -5  -2   14.42    1.04
   5  -5  -2   13.65    1.00
   5  -5  -2   15.62    1.39
  -7   5   3    1.66    0.54
  -7   5   3    0.63    0.59
  -7   5   3    1.82    0.72
  -7   5   3    0.76    0.57
  -7   5   3    0.57    0.60
   7  -5  -3    0.82    0.69
   7  -5  -3    1.14    0.50
   7  -5  -3    2.31    0.75
   7  -5  -3    1.50    0.53
  -9   5   4    0.59    0.91
  -9   5   4    1.88    0.85
  -9   5   4    0.33    0.88
   9  -5  -4    1.86    0.84
   9  -5  -4    2.31    0.70
   6   6  -4    1.64    1.21
   6   6  -4    0.62    0.91
   6   6  -4    1.71    1.08
  -6  -6   4    3.18    1.06
  -6  -6   4    1.74    0.88
   4   6  -3    1.47    0.67
   4   6  -3    0.23    0.66
   4   6  -3    0.78    0.68
  -4  -6   3    1.77    0.68
  -4  -6   3    0.40    0.69
   2   6  -2   14.80    1.42
   2   6  -2   19.64    1.72
   2   6  -2   19.03    1.55
   2   6  -2   19.23    1.67
  -2  -6   2   24.01    1.86
  -2  -6   2   17.27    1.36
  -2  -6   2   18.69    1.70
   0   6  -1    0.11    0.35
   0   6  -1    0.08    0.21
   0   6  -1    0.28    0.41
   0   6  -1    0.03    0.38
   0   6  -1    0.09    0.20
   0   6  -1    0.00    0.23
   0   6  -1   -0.07    0.21
   0  -6   1   -0.04    0.22
   0  -6   1   -0.13    0.39
   0  -6   1    0.12    0.36
   0  -6   1   -0.22    0.34
  -2   6   0   21.76    1.36
  -2   6   0   21.27    1.58
  -2   6   0   21.28    1.60
  -2   6   0   22.17    1.68
  -2   6   0   22.63    1.56
  -2   6   0   22.46    1.35
   2  -6   0   20.77    1.43
   2  -6   0   20.72    1.56
   2  -6   0   22.26    1.70
   2  -6   0   22.54    1.70
   2  -6   0   21.22    1.43
   2  -6   0   20.47    1.58
   2  -6   0   20.96    1.58
  -4   6   1    2.59    0.36
  -4   6   1    2.44    0.74
  -4   6   1    3.17    0.56
  -4   6   1    3.58    0.58
  -4   6   1    2.97    0.74
   4  -6  -1    3.00    0.72
   4  -6  -1    2.54    0.55
   4  -6  -1    2.87    0.46
   4  -6  -1    3.14    0.48
   4  -6  -1    3.02    0.58
   4  -6  -1    2.93    0.77
  -6   6   2    7.22    0.93
  -6   6   2    8.06    0.91
  -6   6   2    9.03    1.22
  -6   6   2    8.78    0.75
  -6   6   2   10.00    1.56
   6  -6  -2    7.37    0.67
   6  -6  -2    7.13    1.01
   6  -6  -2    8.45    1.01
   6  -6  -2    7.33    0.72
  -8   6   3    0.26    0.93
  -8   6   3    0.00    0.54
  -8   6   3   -0.98    0.61
  -8   6   3    0.07    0.90
  -8   6   3   -0.97    0.43
   8  -6  -3    0.32    0.52
   8  -6  -3    0.72    0.56
   8  -6  -3    0.42    0.81
   8  -6  -3   -0.64    0.83
   5   7  -4    3.48    1.30
   5   7  -4    2.45    1.07
   5   7  -4    4.67    1.42
  -5  -7   4    3.82    1.21
  -5  -7   4    4.24    1.38
   3   7  -3    0.31    0.54
   3   7  -3   -0.09    0.53
   3   7  -3    0.07    0.58
   3   7  -3   -0.05    0.41
  -3  -7   3    1.64    0.80
  -3  -7   3   -0.02    0.51
  -3  -7   3    0.26    0.72
   1   7  -2    1.33    0.72
   1   7  -2    1.68    0.49
   1   7  -2    1.30    0.62
  -1  -7   2    1.40    0.15
  -1  -7   2    0.84    0.75
  -1  -7   2    0.89    0.54
  -1  -7   2    0.99    0.66
  -1   7  -1   -0.27    0.37
  -1   7  -1   -0.13    0.33
  -1   7  -1    0.42    0.28
  -1   7  -1    0.16    0.24
  -1   7  -1   -0.07    0.29
  -1   7  -1    0.23    0.35
  -1   7  -1    0.03    0.26
   1  -7   1    0.07    0.37
   1  -7   1    0.22    0.40
   1  -7   1   -0.29    0.29
   1  -7   1    0.11    0.30
   1  -7   1    0.18    0.33
  -3   7   0    5.25    0.74
  -3   7   0    5.54    0.58
  -3   7   0    5.83    0.57
  -3   7   0    7.28    1.21
  -3   7   0    5.22    0.78
   3  -7   0    5.66    0.64
   3  -7   0    3.93    0.57
   3  -7   0    7.27    1.21
   3  -7   0    7.01    1.14
   3  -7   0    6.72    0.79
   3  -7   0    5.94    1.04
  -5   7   1    0.31    0.55
  -5   7   1    0.29    0.31
  -5   7   1   -0.25    0.22
  -5   7   1    0.08    0.30
  -5   7   1   -0.48    0.46
   5  -7  -1   -0.14    0.29
   5  -7  -1    0.00    0.28
   5  -7  -1    0.80    0.59
   5  -7  -1   -0.46    0.43
   5  -7  -1   -0.13    0.24
   5  -7  -1    0.12    0.26
  -7   7   2    0.87    0.69
  -7   7   2    3.04    0.91
  -7   7   2    2.72    0.62
  -7   7   2    4.64    1.09
   7  -7  -2    2.93    1.03
   7  -7  -2    1.71    0.66
  -9   7   3   -0.86    0.62
  -9   7   3    1.43    1.19
  -9   7   3    0.24    0.83
   9  -7  -3    1.04    1.21
   4   8  -4    0.11    0.89
   4   8  -4    0.65    0.95
   4   8  -4   -0.11    0.62
  -4  -8   4   -0.36    0.66
  -4  -8   4   -1.63    0.82
   2   8  -3    1.95    0.70
   2   8  -3    0.70    0.56
   2   8  -3    0.07    0.48
   2   8  -3    0.37    0.54
  -2  -8   3    0.48    0.61
  -2  -8   3    0.52    0.75
  -2  -8   3    1.35    0.73
   0   8  -2    0.68    0.48
   0   8  -2    0.53    0.37
   0   8  -2    0.15    0.31
   0   8  -2    0.40    0.62
   0   8  -2    0.69    0.34
   0   8  -2    0.89    0.33
   0  -8   2    3.91    1.06
   0  -8   2    2.94    0.72
   0  -8   2    1.19    0.54
   0  -8   2    0.32    0.37
   0  -8   2    0.72    0.36
   0  -8   2    0.38    0.37
  -2   8  -1    0.23    0.45
  -2   8  -1    0.50    0.59
  -2   8  -1    0.52    0.35
  -2   8  -1   -0.22    0.42
  -2   8  -1   -0.08    0.30
   2  -8   1   -0.54    0.34
   2  -8   1    0.62    0.51
   2  -8   1   -0.19    0.41
   2  -8   1   -0.37    0.50
  -4   8   0    4.16    1.18
  -4   8   0    3.99    0.66
  -4   8   0    4.57    0.72
  -4   8   0    5.18    1.15
   4  -8   0    5.59    1.13
   4  -8   0    3.85    0.69
   4  -8   0    4.69    0.76
   4  -8   0    3.72    0.84
   4  -8   0    2.97    1.01
  -6   8   1    4.57    0.83
  -6   8   1    4.42    1.09
  -6   8   1    4.14    0.77
  -6   8   1    3.61    1.10
   6  -8  -1    5.04    0.75
   6  -8  -1    4.47    0.57
   6  -8  -1    6.81    1.20
   6  -8  -1    4.97    0.76
   6  -8  -1    4.07    0.59
   6  -8  -1    7.31    1.48
  -8   8   2   -0.70    0.46
  -8   8   2   -0.37    0.63
  -8   8   2    0.42    0.56
  -8   8   2    0.73    0.77
   8  -8  -2    0.26    0.69
   8  -8  -2   -0.07    0.91
   3   9  -4    0.40    0.58
   3   9  -4    0.93    0.85
   3   9  -4   -0.46    0.76
  -3  -9   4    1.12    1.12
  -3  -9   4   -1.65    0.87
  -3  -9   4    0.67    0.99
   1   9  -3    3.54    0.84
   1   9  -3    2.06    0.69
   1   9  -3    3.14    1.08
   1   9  -3    2.63    0.92
  -1  -9   3    2.03    0.94
  -1  -9   3    4.29    1.12
  -1  -9   3    1.95    1.12
  -1   9  -2    4.04    0.77
  -1   9  -2    5.27    0.72
  -1   9  -2    5.19    1.34
  -1   9  -2    4.36    0.81
  -1   9  -2    3.94    0.77
   1  -9   2    5.54    1.17
   1  -9   2    4.58    1.39
   1  -9   2    5.57    1.21
   1  -9   2    4.78    0.87
   1  -9   2    5.16    0.95
  -3   9  -1    0.11    0.46
  -3   9  -1    0.54    0.31
  -3   9  -1    0.77    0.35
  -3   9  -1    0.85    0.59
  -3   9  -1    0.74    0.54
   3  -9   1    0.40    0.60
   3  -9   1   -0.09    0.45
   3  -9   1    1.18    0.64
   3  -9   1    0.82    0.59
  -5   9   0   -0.10    0.57
  -5   9   0    0.07    0.33
  -5   9   0   -0.19    0.37
  -5   9   0   -0.41    0.58
   5  -9   0    0.05    0.36
   5  -9   0    1.12    0.63
   5  -9   0   -0.26    0.54
   5  -9   0   -0.04    0.34
  -7   9   1    0.14    0.69
  -7   9   1    0.20    0.77
  -7   9   1    0.54    0.43
  -7   9   1   -0.08    0.81
   7  -9  -1    0.49    0.68
   7  -9  -1    0.55    0.54
   7  -9  -1    0.35    0.76
   2  10  -4    1.46    0.80
   2  10  -4   -1.32    0.90
  -2 -10   4    1.95    1.14
  -2 -10   4    1.60    1.24
  -2 -10   4   -0.34    0.97
   0  10  -3    1.44    0.78
   0  10  -3    0.71    0.65
   0  10  -3    1.63    0.57
   0  10  -3    0.92    0.89
   0 -10   3    2.21    1.02
   0 -10   3    1.73    0.43
   0 -10   3    1.84    0.95
   0 -10   3    2.02    0.95
  -2  10  -2   -0.16    0.42
  -2  10  -2   -0.07    0.60
  -2  10  -2   -0.18    0.46
  -2  10  -2    1.32    0.46
  -2  10  -2   -0.11    0.30
   2 -10   2   -0.84    0.63
   2 -10   2   -0.71    0.52
   2 -10   2    0.47    0.65
   2 -10   2    0.64    0.50
   2 -10   2   -0.22    0.56
  -4  10  -1    2.12    0.83
  -4  10  -1    3.26    0.63
  -4  10  -1    4.48    1.09
  -4  10  -1    3.29    0.74
   4 -10   1    4.09    0.96
   4 -10   1    2.97    0.98
   4 -10   1    3.81    1.16
   4 -10   1    4.47    1.04
  -6  10   0    0.67    0.80
  -6  10   0    2.12    0.62
  -6  10   0    1.79    0.91
   6 -10   0    1.65    0.55
   6 -10   0    2.40    0.99
   6 -10   0    1.49    0.70
   6 -10   0    2.57    1.00
  -8  10   1   -0.71    0.84
  -1  11  -3    0.59    0.83
  -1  11  -3    0.02    0.50
   1 -11   3    1.26    0.79
   1 -11   3   -0.57    0.49
   1 -11   3    0.29    0.80
   1 -11   3    0.24    0.70
   1 -11   3    0.31    0.61
  -3  11  -2   -0.15    0.62
  -3  11  -2    0.24    0.56
  -3  11  -2    0.13    0.36
  -3  11  -2   -0.88    0.47
  -3  11  -2    0.63    0.58
   3 -11   2    0.19    0.89
   3 -11   2    0.23    0.90
   3 -11   2    0.75    0.66
   3 -11   2    0.77    0.80
   3 -11   2    0.47    0.73
  -5  11  -1    3.08    0.78
  -5  11  -1    3.37    1.15
  -5  11  -1    3.44    1.02
  -5  11  -1    1.78    0.58
   5 -11   1    3.86    1.18
   5 -11   1    3.71    0.95
   5 -11   1    5.59    1.48
   5 -11   1    3.07    1.16
  -4  12  -2   -0.31    0.71
   4 -12   2    1.89    1.16
   4 -11   6   -0.07    0.99
   4 -11   6    2.07    0.91
   4 -11   6    1.54    0.88
   4 -11   6    0.12    0.88
   4 -11   6   -0.34    0.72
   4 -11   6   -0.07    0.74
   5 -10   5    0.40    0.70
   5 -10   5    1.24    0.85
   5 -10   5    0.31    0.68
   5 -10   5   -0.46    0.55
   5 -10   5   -0.54    0.64
   5 -10   5    0.43    0.85
  -5  10  -5    0.46    0.23
  -5  10  -5    0.42    0.61
  -5  10  -5    0.98    0.78
   3 -10   6    2.22    0.94
   3 -10   6    4.23    1.21
   3 -10   6    2.40    0.81
   3 -10   6    2.52    0.88
   3 -10   6    2.64    1.05
   3 -10   6    3.46    0.96
  -3  10  -6    1.96    0.81
  -3  10  -6    2.93    0.32
   1 -10   7    0.47    0.64
   1 -10   7   -1.29    0.70
   1 -10   7    0.27    0.68
   1 -10   7   -1.25    0.69
   1 -10   7   -1.41    0.80
  -1  10  -7    0.76    0.71
  -1  10  -7    0.89    0.90
  -1  10  -7    0.68    0.45
   6  -9   4    1.57    0.72
   6  -9   4    4.31    1.12
   6  -9   4    2.08    0.74
   6  -9   4    1.57    0.92
   6  -9   4    1.87    1.00
  -6   9  -4    3.01    1.07
  -6   9  -4    3.15    0.57
  -6   9  -4    2.27    0.90
  -6   9  -4    3.30    0.64
   4  -9   5    2.17    0.75
   4  -9   5    3.18    0.97
   4  -9   5    1.99    0.83
   4  -9   5    2.63    0.94
   4  -9   5    1.81    0.73
  -4   9  -5    1.01    0.78
  -4   9  -5    1.99    0.73
  -4   9  -5    2.11    0.24
   2  -9   6   -0.02    0.64
   2  -9   6    0.90    0.70
   2  -9   6    0.82    0.59
   2  -9   6    0.52    0.56
  -2   9  -6    0.50    0.26
  -2   9  -6    0.62    0.73
  -2   9  -6    0.50    0.25
  -2   9  -6    0.13    0.47
   0  -9   7    0.56    0.85
   0  -9   7   -0.70    0.51
   0  -9   7    3.22    1.12
   0   9  -7    1.02    0.51
   0   9  -7    2.01    0.90
   0   9  -7    1.53    0.81
   0   9  -7    0.96    0.56
   2   9  -8    0.54    0.74
   7  -8   3    0.56    0.64
   7  -8   3   -0.43    0.54
   7  -8   3    0.63    0.37
  -7   8  -3    0.09    0.55
  -7   8  -3    0.45    0.45
  -7   8  -3    0.05    0.67
  -7   8  -3    0.30    0.58
   5  -8   4    1.50    0.62
   5  -8   4    1.00    0.48
   5  -8   4    1.69    0.66
   5  -8   4    1.41    0.69
   5  -8   4    1.20    0.63
  -5   8  -4    1.22    0.67
  -5   8  -4    1.76    0.60
  -5   8  -4    1.65    0.38
  -5   8  -4    1.07    0.60
  -5   8  -4    0.12    0.69
   3  -8   5    1.58    0.66
   3  -8   5    1.25    0.65
   3  -8   5    2.27    0.73
   3  -8   5    1.12    0.60
   3  -8   5    0.16    0.56
  -3   8  -5    0.50    0.13
  -3   8  -5    0.60    0.48
  -3   8  -5    1.18    0.64
  -3   8  -5    0.83    0.55
  -3   8  -5    0.66    0.48
   1  -8   6    6.17    0.83
   1  -8   6    3.46    1.03
   1  -8   6    7.26    1.14
   1  -8   6    4.90    1.06
  -1   8  -6    6.34    1.29
  -1   8  -6    4.73    0.57
  -1   8  -6    6.09    1.13
  -1   8  -6    6.29    1.29
  -1   8  -6    4.78    0.62
  -1  -8   7   -0.03    0.73
  -1  -8   7    0.49    0.36
  -1  -8   7    1.22    0.93
  -1  -8   7    0.26    0.32
  -1  -8   7    0.88    0.37
   1   8  -7    0.41    0.49
   1   8  -7    0.31    0.78
   1   8  -7    0.40    0.67
   1   8  -7   -0.08    0.53
   1   8  -7    0.56    0.45
  -3  -8   8    0.65    0.91
  -3  -8   8   -0.11    0.97
   3   8  -8    0.89    0.70
   3   8  -8    0.16    0.63
   3   8  -8    1.91    1.02
   8  -7   2    0.54    0.69
   8  -7   2    1.66    0.85
   8  -7   2    1.13    1.05
  -8   7  -2    0.92    0.75
  -8   7  -2    0.92    0.83
  -8   7  -2    0.98    0.58
   6  -7   3    7.30    1.48
   6  -7   3    5.05    0.80
   6  -7   3    4.81    0.68
   6  -7   3    4.73    0.80
   6  -7   3    5.58    1.15
   6  -7   3    5.26    1.34
  -6   7  -3    6.43    1.30
  -6   7  -3    6.26    0.90
  -6   7  -3    5.55    1.16
  -6   7  -3    4.86    0.81
  -6   7  -3    4.96    1.19
   4  -7   4    5.86    0.88
   4  -7   4    7.40    1.01
   4  -7   4    8.90    1.49
   4  -7   4    6.16    0.89
  -4   7  -4    6.92    1.00
  -4   7  -4    6.78    0.98
  -4   7  -4    7.19    0.58
  -4   7  -4    7.39    1.02
  -4   7  -4    7.36    0.91
   2  -7   5   -0.40    0.34
   2  -7   5   -0.35    0.34
   2  -7   5   -0.25    0.42
   2  -7   5   -0.60    0.39
   2  -7   5    1.31    0.55
  -2   7  -5   -0.16    0.41
  -2   7  -5   -0.11    0.43
  -2   7  -5   -0.02    0.35
  -2   7  -5    0.10    0.14
  -2   7  -5   -0.20    0.39
  -2   7  -5    0.10    0.13
   0  -7   6    2.70    0.68
   0  -7   6    1.18    0.48
   0  -7   6    0.62    0.72
   0  -7   6    1.38    0.67
   0   7  -6    1.00    0.66
   0   7  -6    1.92    0.48
   0   7  -6    2.42    0.86
   0   7  -6    1.73    0.65
   0   7  -6    1.78    0.50
  -2  -7   7    4.13    1.18
  -2  -7   7    2.72    0.24
  -2  -7   7    2.76    0.25
  -2  -7   7    3.76    0.93
  -2  -7   7    3.48    0.38
   2   7  -7    1.98    0.74
   2   7  -7    3.78    1.02
   2   7  -7    4.41    0.88
   2   7  -7    2.63    0.79
   2   7  -7    2.40    0.75
  -4  -7   8    0.01    0.88
  -4  -7   8    0.36    0.89
   4   7  -8    1.06    0.73
   4   7  -8    0.88    0.72
   4   7  -8    1.83    0.87
   9  -6   1    0.20    0.93
   9  -6   1    1.25    0.85
   9  -6   1   -0.03    0.76
  -9   6  -1    1.73    1.01
  -9   6  -1    2.70    1.07
  -9   6  -1    0.43    0.85
   7  -6   2    1.37    0.45
   7  -6   2    2.82    0.99
   7  -6   2    0.86    0.70
   7  -6   2    1.10    0.39
   7  -6   2    2.06    0.84
  -7   6  -2    2.26    0.82
  -7   6  -2    2.08    0.61
  -7   6  -2    3.68    1.02
  -7   6  -2    4.21    1.08
  -7   6  -2    2.65    0.92
   5  -6   3    1.97    0.53
   5  -6   3    2.35    0.74
   5  -6   3    1.42    0.68
   5  -6   3    1.39    0.44
   5  -6   3    2.20    0.76
   5  -6   3    1.62    0.47
   5  -6   3    1.71    0.47
  -5   6  -3    1.81    0.70
  -5   6  -3    2.66    0.84
  -5   6  -3    2.45    0.55
  -5   6  -3    1.58    0.44
  -5   6  -3    2.42    0.82
  -5   6  -3    2.01    0.45
   3  -6   4    1.98    0.61
   3  -6   4    2.00    0.60
   3  -6   4    1.97    0.56
   3  -6   4    1.12    0.44
   3  -6   4    1.98    0.62
   3  -6   4    1.45    0.56
  -3   6  -4    1.59    0.48
  -3   6  -4    1.62    0.62
  -3   6  -4    2.05    0.70
  -3   6  -4    1.66    0.26
  -3   6  -4    1.88    0.68
  -3   6  -4    1.55    0.22
   1  -6   5    7.08    0.81
   1  -6   5    6.36    0.80
   1  -6   5    7.72    1.00
   1  -6   5    7.83    0.87
   1  -6   5    6.60    0.77
  -1   6  -5    7.43    0.59
  -1   6  -5    8.18    0.93
  -1   6  -5    7.32    0.59
  -1   6  -5    7.12    0.98
  -1   6  -5    6.02    0.78
  -1  -6   6    4.20    0.99
  -1  -6   6    3.47    0.49
  -1  -6   6    3.14    0.90
  -1  -6   6    3.25    0.53
   1   6  -6    3.60    0.97
   1   6  -6    3.35    0.82
   1   6  -6    4.99    0.66
   1   6  -6    3.14    0.64
   1   6  -6    4.23    1.02
  -3  -6   7    1.51    0.71
  -3  -6   7    1.24    0.79
  -3  -6   7    0.92    0.83
   3   6  -7    2.21    0.92
   3   6  -7    1.22    0.64
   3   6  -7    1.42    0.68
   3   6  -7    1.53    0.67
  -5  -6   8    0.45    1.05
  -5  -6   8    1.41    0.85
   5   6  -8    0.17    0.85
   5   6  -8    0.48    0.62
   5   6  -8    0.64    0.88
   8  -5   1    0.06    0.43
   8  -5   1    0.47    0.77
   8  -5   1    0.59    0.76
   8  -5   1    0.82    0.68
  -8   5  -1   -0.10    0.90
  -8   5  -1    0.67    0.63
  -8   5  -1    0.32    0.52
  -8   5  -1    0.76    0.64
  -8   5  -1   -0.30    0.64
   6  -5   2    0.96    0.61
   6  -5   2    0.31    0.26
   6  -5   2    0.23    0.25
   6  -5   2    0.07    0.43
   6  -5   2   -0.04    0.36
   6  -5   2    0.67    0.40
   6  -5   2    0.46    0.27
  -6   5  -2    0.53    0.41
  -6   5  -2    0.31    0.21
  -6   5  -2    0.66    0.46
  -6   5  -2    0.83    0.39
  -6   5  -2    0.48    0.41
  -6   5  -2    0.30    0.52
   4  -5   3    6.79    0.86
   4  -5   3    6.89    0.70
   4  -5   3    6.09    0.75
   4  -5   3    7.19    1.21
   4  -5   3    5.55    0.74
   4  -5   3    5.53    0.62
   4  -5   3    5.87    0.61
  -4   5  -3    6.79    0.86
  -4   5  -3    8.18    0.97
  -4   5  -3    7.04    0.71
  -4   5  -3    5.74    0.72
  -4   5  -3    6.59    1.09
  -4   5  -3    6.27    0.59
  -4   5  -3    5.99    0.60
   2  -5   4    1.87    0.55
   2  -5   4    2.88    0.65
   2  -5   4    1.65    0.45
   2  -5   4    1.92    0.46
   2  -5   4    1.85    0.56
   2  -5   4    1.70    0.48
  -2   5  -4    1.60    0.19
  -2   5  -4    1.52    0.17
  -2   5  -4    1.83    0.55
  -2   5  -4    1.64    0.47
  -2   5  -4    1.72    0.49
  -2   5  -4    1.48    0.44
  -2   5  -4    2.17    0.60
   0  -5   5   19.04    1.34
   0  -5   5   17.31    1.55
   0  -5   5   18.66    1.52
   0  -5   5   19.74    1.41
   0  -5   5   18.01    1.36
   0   5  -5   20.51    1.58
   0   5  -5   19.46    1.63
   0   5  -5   20.59    1.30
   0   5  -5   19.99    1.27
   0   5  -5   20.31    1.44
  -2  -5   6    4.55    0.57
  -2  -5   6    5.95    0.55
  -2  -5   6    5.28    0.52
  -2  -5   6    5.33    0.51
  -2  -5   6    6.51    1.16
  -2  -5   6    6.65    1.25
  -2  -5   6    4.66    0.49
   2   5  -6    6.44    1.19
   2   5  -6    6.51    1.00
   2   5  -6    6.03    0.83
   2   5  -6    5.75    1.17
   2   5  -6    5.37    0.74
  -4  -5   7    0.19    0.66
  -4  -5   7    0.34    0.44
  -4  -5   7   -0.13    0.72
   4   5  -7    0.18    0.52
   4   5  -7    1.02    0.65
   4   5  -7    0.74    0.72
   4   5  -7    1.16    0.70
   4   5  -7    1.02    0.69
  -6  -5   8    2.73    1.12
  -6  -5   8    3.08    1.15
   6   5  -8    2.51    0.96
   6   5  -8    0.91    0.89
   6   5  -8    3.30    1.18
   9  -4   0   -1.24    0.74
   9  -4   0   -1.53    0.81
  -9   4   0   -0.01    0.81
  -9   4   0    0.17    0.81
  -9   4   0   -0.63    0.79
   7  -4   1    2.13    0.58
   7  -4   1    2.58    0.86
   7  -4   1    2.89    0.85
   7  -4   1    0.19    0.37
  -7   4  -1    0.45    0.59
  -7   4  -1    1.15    0.67
  -7   4  -1    0.50    0.67
  -7   4  -1    0.17    0.31
  -7   4  -1    1.22    0.53
  -7   4  -1    1.00    0.74
   5  -4   2    0.34    0.41
   5  -4   2    0.70    0.49
   5  -4   2    0.36    0.26
   5  -4   2    0.80    0.43
   5  -4   2   -0.13    0.16
  -5   4  -2    0.25    0.31
  -5   4  -2    0.24    0.23
  -5   4  -2    0.00    0.23
  -5   4  -2    0.38    0.36
  -5   4  -2    0.01    0.19
  -5   4  -2    0.62    0.44
   3  -4   3   67.75    4.13
   3  -4   3   70.88    4.04
   3  -4   3   69.53    3.75
   3  -4   3   72.40    4.18
   3  -4   3   71.91    3.88
   3  -4   3   72.32    3.89
   3  -4   3   70.43    3.88
   3  -4   3   70.41    3.76
   3  -4   3   67.70    4.04
  -3   4  -3   70.13    3.88
  -3   4  -3   69.61    4.14
  -3   4  -3   70.14    4.03
  -3   4  -3   72.19    3.72
  -3   4  -3   72.97    3.70
  -3   4  -3   73.65    4.10
  -3   4  -3   68.08    3.84
   1  -4   4   20.02    1.37
   1  -4   4   19.60    1.40
   1  -4   4   19.62    1.29
   1  -4   4   18.11    1.42
   1  -4   4   18.37    1.43
   1  -4   4   20.03    1.49
   1  -4   4   19.20    1.36
   1  -4   4   18.01    1.39
  -1   4  -4   20.90    1.42
  -1   4  -4   20.25    1.29
  -1   4  -4   19.96    1.13
  -1   4  -4   19.66    1.46
  -1   4  -4   19.44    1.47
  -1   4  -4   19.07    1.10
  -1  -4   5   30.05    1.82
  -1  -4   5   31.21    1.88
  -1  -4   5   30.88    1.74
  -1  -4   5   32.08    1.85
  -1  -4   5   31.71    1.89
  -1  -4   5   29.32    1.98
  -1  -4   5   28.52    2.15
   1   4  -5   32.49    1.95
   1   4  -5   34.94    2.28
   1   4  -5   30.60    1.99
   1   4  -5   30.87    1.85
   1   4  -5   33.31    1.99
   1   4  -5   30.82    1.87
  -3  -4   6   48.44    3.31
  -3  -4   6   49.67    2.64
  -3  -4   6   51.26    3.29
  -3  -4   6   49.22    2.67
   3   4  -6   52.64    3.19
   3   4  -6   45.68    2.62
   3   4  -6   50.08    3.28
   3   4  -6   48.43    3.12
   3   4  -6   46.08    2.64
   3   4  -6   49.43    3.10
   3   4  -6   48.11    3.24
  -5  -4   7    2.07    0.31
  -5  -4   7    2.32    0.82
  -5  -4   7    3.07    0.98
   5   4  -7    2.11    0.39
   5   4  -7    1.76    0.75
   5   4  -7    2.27    0.90
   5   4  -7    3.91    1.10
  -7  -4   8    1.19    1.00
   7   4  -8    3.02    0.90
   7   4  -8   -0.48    0.99
   8  -3   0   -0.27    0.62
   8  -3   0    0.41    1.08
   8  -3   0    0.72    0.64
   8  -3   0    0.99    0.84
   8  -3   0    1.41    0.52
  -8   3   0    0.77    0.55
  -8   3   0    1.14    0.70
  -8   3   0   -0.35    1.06
  -8   3   0    0.72    0.71
  -8   3   0    1.53    0.74
   6  -3   1   12.08    1.27
   6  -3   1    9.41    0.97
   6  -3   1   11.87    1.36
  -6   3  -1   13.07    1.26
  -6   3  -1   11.10    1.29
  -6   3  -1   10.03    1.13
  -6   3  -1   10.08    1.15
   4  -3   2    5.97    0.95
   4  -3   2    6.04    0.93
   4  -3   2    4.55    1.01
   4  -3   2    4.39    0.46
   4  -3   2    5.25    0.85
   4  -3   2    4.04    0.47
   4  -3   2    3.96    0.34
   4  -3   2    3.94    0.33
  -4   3  -2    4.25    0.53
  -4   3  -2    4.41    0.62
  -4   3  -2    3.81    0.44
  -4   3  -2    4.44    0.80
  -4   3  -2    3.99    1.04
  -4   3  -2    5.45    0.88
   2  -3   3   14.01    1.11
   2  -3   3   13.58    1.09
   2  -3   3   15.17    1.17
   2  -3   3   14.39    0.97
   2  -3   3   14.86    1.18
   2  -3   3   13.51    0.94
   2  -3   3   14.70    0.95
   2  -3   3   14.43    1.06
  -2   3  -3   13.30    0.87
  -2   3  -3   14.03    1.14
  -2   3  -3   16.59    1.16
  -2   3  -3   14.05    0.94
  -2   3  -3   14.60    1.07
   0  -3   4  156.32    7.88
   0  -3   4  162.20    8.14
   0  -3   4  151.84    8.13
   0  -3   4  158.44    8.13
   0  -3   4  152.47    8.04
   0  -3   4  146.81    7.91
   0  -3   4  154.73    7.93
   0  -3   4  155.18    7.99
   0   3  -4  156.97    7.84
   0   3  -4  159.48    8.07
   0   3  -4  151.33    8.10
   0   3  -4  154.74    7.85
   0   3  -4  153.09    7.97
   0   3  -4  166.09    8.16
   0   3  -4  151.79    7.92
   0   3  -4  159.98    7.90
  -2  -3   5   20.56    1.24
  -2  -3   5   18.74    1.50
  -2  -3   5   19.97    1.35
  -2  -3   5   19.40    1.25
   2   3  -5   18.49    1.23
   2   3  -5   20.62    1.45
   2   3  -5   17.40    1.20
   2   3  -5   19.06    1.43
   2   3  -5   21.60    1.58
  -4  -3   6    1.15    0.51
  -4  -3   6    0.76    0.56
  -4  -3   6    1.41    0.33
  -4  -3   6    0.90    0.46
  -4  -3   6    1.17    0.37
   4   3  -6    1.29    0.51
   4   3  -6    0.93    0.57
   4   3  -6    0.87    0.39
   4   3  -6    1.70    0.65
   4   3  -6    1.36    0.41
   4   3  -6    0.98    0.56
   4   3  -6    1.22    0.65
  -6  -3   7    0.82    0.65
  -6  -3   7   -0.42    0.48
  -6  -3   7    0.02    0.41
   6   3  -7    0.14    0.44
   6   3  -7    1.47    0.77
   6   3  -7   -0.20    0.54
   6   3  -7   -0.82    0.56
   9  -2  -1    1.45    0.80
   9  -2  -1    1.16    0.71
   9  -2  -1   -0.88    0.67
  -9   2   1    4.00    0.97
  -9   2   1   -0.51    0.90
   7  -2   0    0.26    0.63
   7  -2   0    0.62    0.29
   7  -2   0    1.02    0.64
   7  -2   0    0.27    0.52
   7  -2   0    1.27    0.68
  -7   2   0   -0.01    0.41
  -7   2   0    0.70    0.67
  -7   2   0    0.43    0.58
  -7   2   0    0.86    0.64
  -7   2   0    1.84    0.89
  -7   2   0    0.53    0.59
   5  -2   1    2.21    0.69
   5  -2   1    2.47    0.32
   5  -2   1    3.38    0.64
   5  -2   1    2.68    0.74
   5  -2   1    3.15    0.80
   5  -2   1    2.41    0.33
  -5   2  -1    1.96    0.66
  -5   2  -1    2.36    0.64
  -5   2  -1    1.90    0.63
  -5   2  -1    3.88    0.86
  -5   2  -1    3.08    0.47
  -5   2  -1    3.04    0.66
   3  -2   2  124.65    6.51
   3  -2   2  129.70    6.18
   3  -2   2  122.74    6.42
   3  -2   2  125.78    6.75
   3  -2   2  130.87    6.44
   3  -2   2  123.12    6.66
   3  -2   2  111.31    6.91
   3  -2   2  128.68    6.67
   3  -2   2  123.11    6.18
  -3   2  -2  134.01    6.56
  -3   2  -2  128.66    6.68
  -3   2  -2  130.66    6.77
  -3   2  -2  126.26    6.50
  -3   2  -2  123.44    6.43
  -3   2  -2  129.18    6.52
  -3   2  -2  123.20    6.66
   1  -2   3   10.82    0.84
   1  -2   3   10.51    0.87
   1  -2   3   10.08    0.85
   1  -2   3   10.63    0.74
   1  -2   3   10.79    0.67
   1  -2   3   11.12    0.67
   1  -2   3   11.17    0.85
   1  -2   3    9.70    0.80
   1  -2   3   10.29    0.86
   1  -2   3   10.71    0.60
   1  -2   3   11.46    0.61
  -1   2  -3   10.77    0.75
  -1   2  -3   10.79    0.69
  -1   2  -3   11.04    0.83
  -1   2  -3   10.76    0.71
  -1   2  -3   10.69    0.86
  -1   2  -3   11.29    0.85
  -1   2  -3   10.62    0.86
  -1  -2   4   12.15    0.90
  -1  -2   4   10.02    0.83
  -1  -2   4   10.12    0.84
  -1  -2   4   11.88    0.87
  -1  -2   4   12.81    1.04
  -1  -2   4   13.37    1.04
  -1  -2   4   15.89    1.08
   1   2  -4   13.69    0.89
   1   2  -4   14.91    0.93
   1   2  -4   15.79    0.95
   1   2  -4   11.37    0.92
  -3  -2   5    2.17    0.54
  -3  -2   5    1.79    0.50
  -3  -2   5    2.32    0.60
  -3  -2   5    2.42    0.43
  -3  -2   5    2.50    0.48
  -3  -2   5    2.21    0.59
   3   2  -5    2.58    0.52
   3   2  -5    2.22    0.55
   3   2  -5    1.87    0.64
   3   2  -5    1.56    0.40
   3   2  -5    2.36    0.54
   3   2  -5    3.23    0.70
   3   2  -5    2.07    0.71
   3   2  -5    2.28    0.58
  -5  -2   6    1.26    0.55
  -5  -2   6    1.40    0.40
  -5  -2   6    0.93    0.41
  -5  -2   6    1.69    0.60
  -5  -2   6    1.95    0.78
   5   2  -6    0.99    0.63
   5   2  -6    1.80    0.76
   5   2  -6    2.26    0.72
   5   2  -6    0.99    0.61
   5   2  -6    0.50    0.43
  -7  -2   7   -0.17    0.58
  -7  -2   7   -0.23    0.73
  -7  -2   7   -0.01    0.43
  -7  -2   7    0.86    0.70
   7   2  -7   -0.15    0.69
   7   2  -7    0.29    0.79
   7   2  -7   -0.51    0.34
   8  -1  -1    0.22    0.56
   8  -1  -1   -0.01    0.50
   8  -1  -1   -0.27    0.41
   8  -1  -1   -0.53    0.58
   8  -1  -1   -0.48    0.47
  -8   1   1    0.85    0.76
  -8   1   1    0.59    0.35
  -8   1   1   -0.24    0.57
   6  -1   0   21.31    1.80
   6  -1   0   18.93    1.67
   6  -1   0   18.98    1.30
   6  -1   0   20.45    1.64
   6  -1   0   20.33    1.31
   6  -1   0   20.74    1.65
  -6   1   0   18.27    1.58
  -6   1   0   19.04    1.69
  -6   1   0   19.19    1.30
  -6   1   0   19.31    1.75
  -6   1   0   19.56    1.69
  -6   1   0   18.72    1.29
  -6   1   0   19.52    1.29
  -6   1   0   20.19    1.67
   4  -1   1    8.14    0.87
   4  -1   1    8.18    0.89
   4  -1   1    8.36    0.90
   4  -1   1    8.96    0.83
   4  -1   1    9.00    0.70
   4  -1   1    9.11    0.93
   4  -1   1    8.56    0.58
   4  -1   1    9.41    0.88
   4  -1   1    8.10    0.83
  -4   1  -1    9.63    0.88
  -4   1  -1    8.72    1.00
  -4   1  -1    9.23    0.93
  -4   1  -1    8.36    0.89
  -4   1  -1    7.05    0.82
  -4   1  -1    8.93    0.87
  -4   1  -1    8.62    0.70
  -4   1  -1    8.80    0.58
   2  -1   2    1.32    0.35
   2  -1   2    1.86    0.37
   2  -1   2    1.27    0.41
   2  -1   2    1.75    0.34
   2  -1   2    1.65    0.34
   2  -1   2    1.36    0.30
   2  -1   2    1.42    0.39
   2  -1   2    1.43    0.40
  -2   1  -2    1.30    0.36
  -2   1  -2    1.40    0.40
  -2   1  -2    1.75    0.45
  -2   1  -2    1.65    0.35
  -2   1  -2    1.43    0.29
   0  -1   3   32.47    1.80
   0  -1   3   31.25    1.63
   0  -1   3   31.43    1.87
   0  -1   3   32.18    1.77
   0  -1   3   33.29    1.76
   0  -1   3   33.23    1.88
   0  -1   3   32.38    1.86
   0  -1   3   31.42    1.83
   0   1  -3   31.53    1.80
   0   1  -3   31.09    1.85
   0   1  -3   31.48    1.87
   0   1  -3   34.17    1.64
   0   1  -3   31.22    1.81
   0   1  -3   30.94    1.80
   0   1  -3   31.93    1.86
   0   1  -3   32.51    1.86
  -2  -1   4   43.79    2.45
  -2  -1   4   41.58    2.39
  -2  -1   4   43.31    2.50
  -2  -1   4   40.92    2.42
  -2  -1   4   43.54    2.54
  -2  -1   4   45.49    2.58
  -2  -1   4   43.63    2.51
  -2  -1   4   44.11    2.56
  -2  -1   4   41.02    2.49
   2   1  -4   42.42    2.52
   2   1  -4   44.65    2.46
   2   1  -4   44.69    2.59
   2   1  -4   39.74    2.52
   2   1  -4   44.64    2.55
   2   1  -4   43.16    2.43
   2   1  -4   43.16    2.51
  -4  -1   5    2.35    0.63
  -4  -1   5    1.88    0.50
  -4  -1   5    1.43    0.48
  -4  -1   5    2.01    0.47
  -4  -1   5    2.05    0.50
  -4  -1   5    2.37    0.72
   4   1  -5    2.05    0.51
   4   1  -5    3.00    0.74
   4   1  -5    2.61    0.67
   4   1  -5    2.11    0.57
   4   1  -5    2.62    0.64
   4   1  -5    2.38    0.63
  -6  -1   6    1.14    0.61
  -6  -1   6    1.95    0.76
  -6  -1   6    0.83    0.48
  -6  -1   6    1.05    0.53
  -6  -1   6    1.58    0.64
   6   1  -6    0.25    0.60
   6   1  -6    0.83    0.57
   6   1  -6    2.02    0.78
   6   1  -6    2.08    0.72
  -8  -1   7    0.24    0.57
  -8  -1   7    0.47    0.72
  -8  -1   7   -0.85    0.64
  -8  -1   7   -0.07    0.76
  -8  -1   7    0.01    0.70
   8   1  -7   -0.40    0.68
   8   1  -7    3.50    1.16
   8   1  -7   -0.20    0.47
   9   0  -2    1.54    0.96
   9   0  -2    2.71    1.11
   9   0  -2    2.05    0.96
  -9   0   2    1.35    1.25
  -9   0   2    1.36    0.83
   7   0  -1    3.39    0.92
   7   0  -1    4.17    0.97
   7   0  -1    3.74    0.94
   7   0  -1    3.70    1.18
   7   0  -1    2.92    0.72
  -7   0   1    2.41    0.69
  -7   0   1    2.85    0.75
  -7   0   1    2.62    0.60
  -7   0   1    3.05    0.94
   5   0   0    0.47    0.31
   5   0   0    0.32    0.44
   5   0   0    1.14    0.47
   5   0   0    0.59    0.35
   5   0   0    0.74    0.46
   5   0   0    0.45    0.47
   5   0   0    0.51    0.30
  -5   0   0    0.45    0.41
  -5   0   0    0.42    0.50
  -5   0   0    0.64    0.33
  -5   0   0    0.12    0.29
  -5   0   0    0.47    0.29
   3   0   1    5.09    0.76
   3   0   1    4.07    0.53
   3   0   1    3.68    0.49
   3   0   1    4.27    0.59
   3   0   1    3.98    0.54
   3   0   1    4.07    0.54
   3   0   1    3.59    0.47
   3   0   1    4.16    0.37
   3   0   1    4.29    0.46
   3   0   1    4.01    0.50
  -3   0  -1    4.31    0.69
  -3   0  -1    3.71    0.46
  -3   0  -1    4.92    0.84
  -3   0  -1    3.99    0.47
  -3   0  -1    3.78    0.52
   1   0   2   39.43    2.12
   1   0   2   39.56    1.98
   1   0   2   42.59    2.12
   1   0   2   39.51    1.95
  -1   0  -2   40.51    2.11
  -1   0  -2   33.66    1.98
  -1   0  -2   34.34    1.93
  -1   0  -2   35.96    2.10
  -1   0  -2   37.80    2.09
  -1   0  -2   34.11    2.11
  -1   0   3   96.64    5.05
  -1   0   3   96.38    5.00
  -1   0   3  101.42    5.06
  -1   0   3   96.79    5.06
  -1   0   3   98.29    4.93
  -1   0   3   96.56    5.03
  -1   0   3   98.68    5.04
  -1   0   3   96.82    5.01
  -1   0   3   92.11    5.01
   1   0  -3  104.20    5.07
   1   0  -3  104.68    4.95
   1   0  -3  101.04    5.05
   1   0  -3   96.96    5.06
   1   0  -3   94.98    5.01
   1   0  -3   96.98    5.04
   1   0  -3   95.71    4.99
   1   0  -3   89.59    5.03
  -3   0   4   14.77    1.14
  -3   0   4   15.06    1.29
  -3   0   4   15.10    1.15
  -3   0   4   14.96    1.19
  -3   0   4   16.09    1.10
  -3   0   4   17.88    1.26
  -3   0   4   16.04    1.13
  -3   0   4   15.50    1.17
   3   0  -4   14.97    1.18
   3   0  -4   15.32    1.15
   3   0  -4   15.11    1.13
   3   0  -4   14.71    1.08
   3   0  -4   15.85    1.23
   3   0  -4   16.57    1.24
   3   0  -4   16.19    1.21
   3   0  -4   15.62    1.11
  -5   0   5    1.07    0.47
  -5   0   5    0.73    0.38
  -5   0   5    2.09    0.57
  -5   0   5    0.48    0.38
  -5   0   5    1.57    0.58
  -5   0   5    0.64    0.40
  -5   0   5    0.41    0.35
   5   0  -5    0.61    0.47
   5   0  -5    0.68    0.46
   5   0  -5    0.45    0.31
   5   0  -5    0.27    0.46
   5   0  -5    0.70    0.49
   5   0  -5    1.19    0.55
  -7   0   6    1.70    0.71
  -7   0   6    1.34    0.66
  -7   0   6    0.95    0.75
  -7   0   6    1.40    0.63
  -7   0   6   -0.11    0.50
   7   0  -6    1.01    0.62
   7   0  -6    1.17    0.75
   7   0  -6    0.48    0.61
   8   1  -2   -0.29    0.55
   8   1  -2   -0.91    0.79
   8   1  -2   -0.44    0.72
   8   1  -2    0.31    0.59
   8   1  -2   -0.63    0.60
  -8  -1   2   -0.82    0.59
  -8  -1   2   -0.43    0.75
  -8  -1   2   -0.36    0.73
   6   1  -1   12.07    1.17
   6   1  -1   13.62    1.12
   6   1  -1    9.92    1.25
   6   1  -1   13.83    1.45
   6   1  -1   10.07    1.08
   6   1  -1   11.24    1.06
   6   1  -1    9.41    1.00
  -6  -1   1    9.71    1.04
  -6  -1   1   11.59    1.28
  -6  -1   1   10.07    1.05
  -6  -1   1   11.58    1.11
  -6  -1   1   11.66    1.39
   4   1   0    2.60    0.63
   4   1   0    2.74    0.51
   4   1   0    2.27    0.51
   4   1   0    2.44    0.50
   4   1   0    3.15    1.17
   4   1   0    2.92    0.59
   4   1   0    2.21    0.48
  -4  -1   0    2.91    0.66
  -4  -1   0    2.79    0.56
  -4  -1   0    2.59    0.52
  -4  -1   0    2.69    0.65
  -4  -1   0    2.04    0.61
   2   1   1    2.31    0.34
   2   1   1    2.47    0.49
   2   1   1    2.71    0.33
   2   1   1    2.57    0.51
   2   1   1    2.74    0.48
   2   1   1    1.97    0.29
   2   1   1    3.17    0.39
   2   1   1    2.40    0.33
   2   1   1    2.40    0.47
  -2  -1  -1    2.44    0.33
  -2  -1  -1    2.55    0.49
  -2  -1  -1    1.80    0.46
  -2  -1  -1    3.81    0.44
  -2  -1  -1    2.53    0.36
  -2  -1  -1    2.43    0.48
   0   1   2  761.16   44.79
   0   1   2  767.75   38.26
   0  -1  -2  768.85   38.24
   0  -1  -2  722.45   44.47
  -2   1   3   27.08    1.64
  -2   1   3   29.56    1.79
  -2   1   3   27.21    1.73
  -2   1   3   28.73    1.75
  -2   1   3   30.51    1.62
  -2   1   3   28.96    1.75
  -2   1   3   32.33    1.82
  -2   1   3   27.54    1.68
   2  -1  -3   31.07    1.77
   2  -1  -3   26.94    1.64
   2  -1  -3   28.35    1.71
   2  -1  -3   31.33    1.80
   2  -1  -3   27.54    1.75
   2  -1  -3   30.01    1.78
   2  -1  -3   27.13    1.70
  -4   1   4    4.01    0.54
  -4   1   4    4.64    0.80
  -4   1   4    4.83    0.83
  -4   1   4    4.79    0.86
  -4   1   4    3.84    0.44
  -4   1   4    4.18    0.71
  -4   1   4    3.89    0.53
  -4   1   4    5.05    0.84
   4  -1  -4    3.58    0.73
   4  -1  -4    3.68    0.71
   4  -1  -4    3.66    0.50
   4  -1  -4    4.46    1.18
   4  -1  -4    4.44    0.74
   4  -1  -4    4.03    0.45
  -6   1   5    2.81    0.67
  -6   1   5    0.73    0.52
  -6   1   5    0.56    0.31
  -6   1   5    0.71    0.51
  -6   1   5    2.07    0.64
  -6   1   5    1.37    0.64
   6  -1  -5    0.83    0.55
   6  -1  -5    1.12    0.46
  -8   1   6   -0.11    0.41
  -8   1   6   -0.97    0.58
  -8   1   6    0.10    0.55
  -8   1   6   -0.01    0.74
  -8   1   6    0.53    0.62
   8  -1  -6    0.39    0.77
   8  -1  -6    0.31    0.71
   8  -1  -6   -0.58    0.65
   7   2  -2    1.17    0.61
   7   2  -2    0.15    0.71
   7   2  -2   -0.64    0.68
   7   2  -2    0.05    0.45
   7   2  -2    0.37    0.54
  -7  -2   2    0.36    0.57
  -7  -2   2    0.49    0.65
  -7  -2   2    0.66    0.77
   5   2  -1    2.44    0.70
   5   2  -1    3.20    0.64
   5   2  -1    2.07    0.60
   5   2  -1    3.05    0.82
   5   2  -1    2.14    0.52
   5   2  -1    3.05    0.59
  -5  -2   1    2.20    0.66
  -5  -2   1    2.11    0.70
  -5  -2   1    2.45    0.69
   3   2   0   57.57    3.23
   3   2   0   54.61    3.05
   3   2   0   51.05    3.33
   3   2   0   58.07    3.37
   3   2   0   58.64    3.08
   3   2   0   56.64    3.10
   3   2   0   56.89    3.36
   3   2   0   57.30    3.37
   3   2   0   56.11    3.10
   3   2   0   56.55    3.48
  -3  -2   0   55.18    3.31
  -3  -2   0   58.73    3.37
  -3  -2   0   55.28    3.32
  -3  -2   0   60.14    3.22
  -3  -2   0   61.53    3.35
  -3  -2   0   56.47    3.42
   1   2   1   24.02    1.36
   1   2   1   22.67    1.47
   1   2   1   21.92    1.46
   1   2   1   21.83    1.49
   1   2   1   22.91    1.47
   1   2   1   23.45    1.45
   1   2   1   23.48    1.48
  -1  -2  -1   24.15    1.49
  -1  -2  -1   23.22    1.46
  -1  -2  -1   24.36    1.45
  -1  -2  -1   25.15    1.55
  -1  -2  -1   24.03    1.50
  -1  -2  -1   24.29    1.49
  -1  -2  -1   23.90    1.44
  -1  -2  -1   22.76    1.38
  -1  -2  -1   23.37    1.36
  -1   2   2  132.73    7.19
  -1   2   2  135.12    6.95
  -1   2   2  137.29    7.17
  -1   2   2  128.94    7.13
  -1   2   2  136.91    7.17
   1  -2  -2  143.22    7.19
   1  -2  -2  144.49    7.16
   1  -2  -2  155.85    7.17
   1  -2  -2  143.79    7.15
   1  -2  -2  140.81    7.14
   1  -2  -2  144.07    7.21
   1  -2  -2  141.79    7.13
   1  -2  -2  146.55    6.96
  -3   2   3   42.61    2.30
  -3   2   3   43.40    2.29
  -3   2   3   41.66    2.50
  -3   2   3   38.93    2.49
  -3   2   3   42.80    2.50
  -3   2   3   42.24    2.52
  -3   2   3   42.72    2.58
  -3   2   3   42.36    2.48
   3  -2  -3   42.61    2.52
   3  -2  -3   41.44    2.57
   3  -2  -3   43.37    2.52
   3  -2  -3   44.64    2.52
   3  -2  -3   43.43    2.49
  -5   2   4    0.69    0.40
  -5   2   4    0.18    0.18
  -5   2   4    0.57    0.42
  -5   2   4    0.48    0.42
  -5   2   4    0.51    0.37
  -5   2   4    0.08    0.37
   5  -2  -4    0.52    0.32
   5  -2  -4    0.54    0.39
   5  -2  -4    0.73    0.40
   5  -2  -4    0.32    0.19
  -7   2   5    3.42    0.97
  -7   2   5    3.21    1.00
  -7   2   5    1.16    0.86
  -7   2   5    2.75    0.70
  -7   2   5    2.49    0.91
   7  -2  -5    3.63    1.01
   7  -2  -5    2.54    0.87
   7  -2  -5    3.71    0.90
  -9   2   6    2.18    1.03
  -9   2   6    1.96    0.89
  -9   2   6    1.26    0.99
   9  -2  -6    1.35    0.83
   9  -2  -6    4.12    1.14
   8   3  -3    0.84    0.83
   8   3  -3    1.31    0.92
   6   3  -2    9.54    1.27
   6   3  -2    9.97    0.98
   6   3  -2   12.06    1.25
   6   3  -2    9.13    0.90
   6   3  -2   11.75    1.45
   6   3  -2    9.75    0.94
  -6  -3   2   11.66    1.37
  -6  -3   2   10.49    1.44
  -6  -3   2   11.84    1.27
   4   3  -1   11.86    0.86
   4   3  -1   11.38    1.20
   4   3  -1   12.51    1.28
   4   3  -1   12.04    1.22
   4   3  -1   11.49    0.83
   4   3  -1   11.78    0.87
   4   3  -1   11.68    0.82
  -4  -3   1   11.70    1.16
  -4  -3   1   12.83    1.21
  -4  -3   1   12.29    1.31
   2   3   0    3.17    0.67
   2   3   0    1.83    0.59
   2   3   0    2.57    0.38
   2   3   0    1.72    0.25
   2   3   0    2.34    0.54
   2   3   0    1.81    0.50
   2   3   0    2.02    0.32
   2   3   0    2.20    0.55
  -2  -3   0    2.45    0.59
  -2  -3   0    1.53    0.50
  -2  -3   0    2.32    0.60
  -2  -3   0    2.19    0.51
  -2  -3   0    2.40    0.35
  -2  -3   0    2.08    0.49
  -2  -3   0    1.43    0.54
   0   3   1   15.29    1.05
   0   3   1   16.44    1.14
   0   3   1   15.42    1.05
   0   3   1   16.16    1.12
   0   3   1   17.94    1.11
   0   3   1   16.08    1.15
   0   3   1   17.07    1.04
   0  -3  -1   15.91    1.13
   0  -3  -1   16.35    1.08
   0  -3  -1   16.77    1.16
   0  -3  -1   14.92    1.04
   0  -3  -1   16.50    1.14
   0  -3  -1   16.50    1.07
   0  -3  -1   15.38    1.02
   0  -3  -1   15.06    1.06
   0  -3  -1   17.25    1.20
  -2   3   2    0.22    0.20
  -2   3   2   -0.06    0.18
  -2   3   2   -0.16    0.22
  -2   3   2    0.11    0.16
  -2   3   2    0.06    0.18
   2  -3  -2    0.06    0.16
   2  -3  -2    0.30    0.20
   2  -3  -2   -0.05    0.23
   2  -3  -2    0.18    0.22
   2  -3  -2    0.37    0.21
   2  -3  -2    0.17    0.21
   2  -3  -2    0.18    0.25
   2  -3  -2    0.02    0.24
  -4   3   3   57.40    3.39
  -4   3   3   61.56    3.52
  -4   3   3   58.49    3.36
  -4   3   3   58.74    3.05
  -4   3   3   57.95    3.35
  -4   3   3   55.69    3.29
  -4   3   3   51.53    3.30
   4  -3  -3   58.86    3.27
   4  -3  -3   58.15    3.28
   4  -3  -3   61.50    3.45
   4  -3  -3   56.96    3.04
   4  -3  -3   55.62    3.44
   4  -3  -3   55.78    3.33
   4  -3  -3   56.60    2.99
  -6   3   4    3.24    0.86
  -6   3   4    2.53    0.84
  -6   3   4    3.93    0.89
  -6   3   4    4.61    0.64
   6  -3  -4    3.32    0.79
   6  -3  -4    3.86    0.79
   6  -3  -4    4.87    1.08
  -8   3   5    1.19    0.55
  -8   3   5    2.11    0.84
  -8   3   5    1.25    1.40
  -8   3   5    1.63    0.62
  -8   3   5    1.25    1.36
   8  -3  -5    1.53    0.90
   8  -3  -5    1.17    0.75
   8  -3  -5    1.99    0.81
   7   4  -3    2.18    0.97
   7   4  -3    0.00    0.85
   7   4  -3    1.22    0.84
  -7  -4   3    0.64    0.82
  -7  -4   3    0.47    0.96
   5   4  -2    8.76    1.16
   5   4  -2   11.09    1.70
   5   4  -2    9.05    1.30
  -5  -4   2   11.14    1.28
  -5  -4   2    9.60    1.21
   3   4  -1    9.53    1.05
   3   4  -1   10.98    0.62
   3   4  -1   10.88    1.07
   3   4  -1   10.27    1.18
   3   4  -1   11.94    0.64
   3   4  -1   11.65    1.14
   3   4  -1   10.70    0.61
  -3  -4   1   11.17    1.08
  -3  -4   1   10.45    1.10
  -3  -4   1    9.81    1.12
   1   4   0    4.26    0.77
   1   4   0    5.86    0.63
   1   4   0    4.15    0.38
   1   4   0    3.49    0.43
   1   4   0    4.55    0.76
   1   4   0    4.76    0.54
   1   4   0    4.69    0.78
   1   4   0    6.85    0.72
  -1  -4   0    4.30    0.77
  -1  -4   0    3.60    0.50
  -1  -4   0    4.98    0.61
  -1  -4   0    5.27    0.85
  -1  -4   0    4.25    0.74
  -1  -4   0    4.02    0.63
  -1  -4   0    4.30    0.40
  -1   4   1   43.12    2.54
  -1   4   1   45.12    2.44
  -1   4   1   43.82    2.52
  -1   4   1   42.65    2.46
  -1   4   1   38.91    2.53
  -1   4   1   43.23    2.41
  -1   4   1   43.40    2.36
  -1   4   1   40.60    2.54
   1  -4  -1   41.69    2.55
   1  -4  -1   43.10    2.58
   1  -4  -1   43.72    2.46
   1  -4  -1   51.19    2.57
   1  -4  -1   43.76    2.32
   1  -4  -1   43.12    2.50
   1  -4  -1   40.80    2.54
   1  -4  -1   41.79    2.36
   1  -4  -1   42.60    2.57
  -3   4   2    5.82    0.93
  -3   4   2    5.09    0.61
  -3   4   2    5.95    0.61
  -3   4   2    5.14    0.58
  -3   4   2    4.97    0.51
  -3   4   2    4.33    0.59
   3  -4  -2    4.85    0.61
   3  -4  -2    4.95    0.49
   3  -4  -2    4.93    0.53
   3  -4  -2    5.13    0.30
   3  -4  -2    4.95    0.65
   3  -4  -2    5.45    0.71
   3  -4  -2    5.03    0.30
   3  -4  -2    4.66    0.65
  -5   4   3    2.46    0.72
  -5   4   3    2.70    0.46
  -5   4   3    1.96    0.55
  -5   4   3    1.69    0.21
  -5   4   3    1.61    0.59
  -5   4   3    1.75    0.51
   5  -4  -3    3.51    0.66
   5  -4  -3    2.13    0.74
   5  -4  -3    2.29    0.45
   5  -4  -3    1.81    0.20
  -7   4   4    1.82    0.78
  -7   4   4    2.25    0.74
  -7   4   4    0.90    0.55
  -7   4   4    0.66    0.56
  -7   4   4    0.92    0.59
   7  -4  -4    1.27    0.77
   7  -4  -4    1.70    0.65
   7  -4  -4    1.01    0.66
   7  -4  -4    0.51    0.51
  -9   4   5    1.33    1.15
  -9   4   5    1.79    1.00
  -9   4   5    2.65    1.06
  -9   4   5    4.05    1.15
   9  -4  -5    2.00    1.00
   9  -4  -5    1.99    1.11
   6   5  -3    0.50    0.69
   6   5  -3    0.40    0.84
   6   5  -3    1.80    0.96
  -6  -5   3    2.49    0.90
  -6  -5   3   -0.09    0.90
   4   5  -2   12.09    1.42
   4   5  -2   14.53    1.58
   4   5  -2   13.55    1.45
   4   5  -2   15.78    1.52
  -4  -5   2   15.56    1.58
  -4  -5   2   13.35    1.47
  -4  -5   2   11.95    1.33
   2   5  -1    9.70    0.99
   2   5  -1    7.80    0.90
   2   5  -1    9.17    1.04
   2   5  -1    9.53    1.04
  -2  -5   1    8.96    1.02
  -2  -5   1    9.35    1.11
  -2  -5   1    9.56    0.93
   0   5   0   11.60    0.94
   0   5   0   11.61    1.07
   0   5   0   12.53    1.15
   0   5   0   11.27    1.09
   0   5   0   12.04    0.86
   0   5   0   12.72    0.90
   0   5   0   10.86    0.91
   0   5   0   10.40    0.95
   0  -5   0   11.49    0.84
   0  -5   0   11.38    1.07
   0  -5   0   12.00    1.01
   0  -5   0   11.96    1.06
   0  -5   0   10.81    0.87
   0  -5   0   11.93    0.83
   0  -5   0   12.73    1.14
   0  -5   0   12.53    1.14
  -2   5   1    4.75    0.51
  -2   5   1    5.34    0.86
  -2   5   1    3.98    0.51
  -2   5   1    5.30    0.67
  -2   5   1    4.75    0.57
  -2   5   1    4.82    0.52
  -2   5   1    5.42    0.86
   2  -5  -1    4.67    0.66
   2  -5  -1    4.39    0.31
   2  -5  -1    4.76    0.45
   2  -5  -1    4.17    0.58
   2  -5  -1    5.38    0.66
   2  -5  -1    4.44    0.44
   2  -5  -1    3.95    0.56
   2  -5  -1    4.71    0.63
   2  -5  -1    4.92    0.66
  -4   5   2   23.62    1.47
  -4   5   2   22.44    1.84
  -4   5   2   22.46    1.31
  -4   5   2   23.32    1.62
  -4   5   2   23.94    1.80
  -4   5   2   24.42    1.64
  -4   5   2   24.63    1.88
   4  -5  -2   24.15    1.32
   4  -5  -2   23.97    1.44
   4  -5  -2   24.61    1.77
   4  -5  -2   24.55    1.50
   4  -5  -2   24.88    1.86
  -6   5   3    0.13    0.33
  -6   5   3   -0.39    0.31
  -6   5   3    1.51    0.67
  -6   5   3   -0.36    0.27
  -6   5   3   -0.18    0.47
   6  -5  -3   -0.45    0.50
   6  -5  -3    1.10    0.53
   6  -5  -3    0.67    0.39
   6  -5  -3    0.34    0.29
  -8   5   4   -0.34    0.60
  -8   5   4    0.36    0.72
  -8   5   4    0.24    0.61
  -8   5   4   -0.29    0.90
   8  -5  -4    0.30    0.57
   8  -5  -4    0.06    0.53
   8  -5  -4   -0.92    0.47
   5   6  -3    1.13    0.72
   5   6  -3    1.09    0.76
   5   6  -3    0.44    0.66
  -5  -6   3    0.65    0.82
  -5  -6   3    1.23    0.79
   3   6  -2    6.50    1.24
   3   6  -2    4.95    0.97
   3   6  -2    3.04    0.87
   3   6  -2    6.13    1.23
  -3  -6   2    6.15    1.16
  -3  -6   2    5.60    1.28
  -3  -6   2    3.09    1.11
   1   6  -1    3.37    0.85
   1   6  -1    3.32    0.33
   1   6  -1    3.47    0.72
   1   6  -1    3.19    0.34
   1   6  -1    3.45    0.69
   1   6  -1    4.75    1.01
  -1  -6   1    2.86    0.35
  -1  -6   1    3.09    0.83
  -1  -6   1    3.81    0.59
  -1  -6   1    3.25    0.81
  -1  -6   1    4.43    0.98
  -1   6   0   42.91    2.61
  -1   6   0   43.10    2.63
  -1   6   0   42.36    2.83
  -1   6   0   42.01    2.70
  -1   6   0   48.43    2.71
  -1   6   0   46.16    2.58
   1  -6   0   45.32    3.10
   1  -6   0   46.04    2.66
   1  -6   0   45.55    2.69
   1  -6   0   44.94    2.87
   1  -6   0   43.88    2.66
  -3   6   1    1.41    0.48
  -3   6   1    1.39    0.38
  -3   6   1    1.72    0.53
  -3   6   1    1.91    0.42
  -3   6   1    1.69    0.67
   3  -6  -1    1.46    0.33
   3  -6  -1    1.27    0.47
   3  -6  -1    1.54    0.32
   3  -6  -1    1.18    0.39
   3  -6  -1    1.33    0.49
  -5   6   2    7.50    1.30
  -5   6   2    4.40    0.65
  -5   6   2    5.42    0.70
   5  -6  -2    8.13    1.28
   5  -6  -2    5.87    0.50
   5  -6  -2    6.02    0.57
   5  -6  -2    5.53    0.49
   5  -6  -2    6.32    0.60
   5  -6  -2    6.77    0.90
  -7   6   3    1.85    0.93
  -7   6   3    1.15    0.45
  -7   6   3   -0.16    0.57
  -7   6   3   -0.18    0.60
   7  -6  -3    1.02    0.61
   7  -6  -3    0.15    0.36
   7  -6  -3   -0.16    0.65
  -9   6   4    1.49    0.82
  -9   6   4    1.17    0.94
  -9   6   4    0.27    0.95
  -9   6   4    1.38    0.94
   9  -6  -4    1.29    0.94
   9  -6  -4    1.80    0.92
   4   7  -3    3.30    0.94
   4   7  -3    1.63    0.84
   4   7  -3    2.05    1.01
  -4  -7   3    1.98    0.75
  -4  -7   3    2.70    1.01
   2   7  -2   10.17    1.36
   2   7  -2   11.59    1.35
   2   7  -2   11.69    1.24
  -2  -7   2   12.02    1.35
  -2  -7   2   12.63    1.37
  -2  -7   2    9.73    1.10
  -2  -7   2   14.08    1.45
   0   7  -1    0.68    0.58
   0   7  -1    1.30    0.60
   0   7  -1    0.91    0.33
   0   7  -1    0.67    0.34
   0   7  -1    0.62    0.34
   0   7  -1    1.18    0.44
   0  -7   1    1.78    0.65
   0  -7   1    1.70    0.70
   0  -7   1    0.41    0.33
   0  -7   1    0.70    0.37
   0  -7   1    1.06    0.63
  -2   7   0    1.66    0.59
  -2   7   0    2.02    0.59
  -2   7   0    1.11    0.38
  -2   7   0    2.18    0.60
  -2   7   0    2.44    0.47
   2  -7   0    2.43    0.69
   2  -7   0    2.05    0.54
   2  -7   0    2.00    0.58
   2  -7   0    2.35    0.65
   2  -7   0    1.63    0.48
   2  -7   0    2.37    0.74
  -4   7   1    7.88    0.77
  -4   7   1    8.76    1.08
  -4   7   1    6.96    0.74
  -4   7   1    7.54    1.06
   4  -7  -1    6.53    0.79
   4  -7  -1    7.55    0.84
  -6   7   2    4.24    1.05
  -6   7   2    4.01    0.82
  -6   7   2    3.30    0.42
  -6   7   2    4.66    0.86
  -6   7   2    3.91    0.97
   6  -7  -2    4.86    1.13
   6  -7  -2    6.43    1.17
   6  -7  -2    3.47    0.42
   6  -7  -2    3.10    0.42
   6  -7  -2    3.52    0.43
  -8   7   3    0.08    0.50
  -8   7   3    1.51    0.74
  -8   7   3    0.08    0.57
   8  -7  -3   -0.47    0.57
   8  -7  -3   -0.72    0.53
   3   8  -3    2.90    1.21
   3   8  -3    2.27    0.84
   3   8  -3    4.17    1.12
  -3  -8   3    3.01    1.18
  -3  -8   3    2.14    0.85
  -3  -8   3    2.10    1.04
   1   8  -2    2.72    1.05
  -1  -8   2    1.93    0.73
  -1   8  -1    6.58    0.78
  -1   8  -1    6.71    0.79
  -1   8  -1    7.10    0.79
  -1   8  -1    7.91    1.01
  -1   8  -1    8.55    0.90
   1  -8   1    7.72    0.98
   1  -8   1   10.08    1.19
   1  -8   1    6.58    0.97
   1  -8   1    5.99    0.80
  -3   8   0   33.11    2.39
  -3   8   0   33.58    2.46
  -3   8   0   33.48    2.09
  -3   8   0   38.97    2.17
  -3   8   0   33.60    2.51
   3  -8   0   31.87    2.12
  -5   8   1    3.00    0.82
  -5   8   1    1.92    0.56
  -5   8   1    2.00    0.70
  -5   8   1    2.11    0.52
   5  -8  -1    2.25    0.74
   5  -8  -1    2.52    0.64
   5  -8  -1    1.98    0.44
   5  -8  -1    1.77    0.71
   5  -8  -1    2.66    0.63
   5  -8  -1    2.07    0.44
  -7   8   2    0.14    0.79
  -7   8   2   -0.53    0.56
  -7   8   2    0.32    0.47
  -7   8   2   -0.15    0.58
   7  -8  -2   -0.56    0.29
   7  -8  -2   -0.87    0.68
   7  -8  -2   -0.20    0.33
   7  -8  -2   -0.75    0.46
  -9   8   3    1.60    1.10
  -9   8   3    0.81    0.81
  -9   8   3    0.14    0.85
   9  -8  -3    2.09    0.90
   9  -8  -3    1.06    1.11
   2   9  -3    0.38    0.58
   2   9  -3    0.23    0.52
   2   9  -3   -0.85    0.67
  -2  -9   3    0.32    0.82
  -2  -9   3   -0.64    0.62
  -2  -9   3    1.88    0.79
   0   9  -2    4.73    0.64
   0   9  -2    8.38    1.55
   0   9  -2    5.91    1.34
   0   9  -2    6.16    0.84
   0  -9   2    6.63    1.42
   0  -9   2    6.84    1.29
   0  -9   2    4.69    0.65
   0  -9   2    5.40    0.58
   0  -9   2    3.55    0.63
   0  -9   2    5.24    0.63
   0  -9   2    5.40    1.17
  -2   9  -1    1.95    0.68
  -2   9  -1    1.34    0.73
  -2   9  -1    2.09    0.64
  -2   9  -1    1.64    0.50
  -2   9  -1    1.70    0.59
   2  -9   1    0.78    0.70
   2  -9   1    1.83    0.89
   2  -9   1    2.57    0.78
  -4   9   0    2.62    0.55
  -4   9   0    1.09    0.59
  -4   9   0    3.86    1.00
   4  -9   0    1.65    0.54
   4  -9   0    1.56    0.78
   4  -9   0    1.98    0.68
  -6   9   1    1.24    0.95
  -6   9   1    1.89    0.55
  -6   9   1    3.00    1.05
  -6   9   1    1.37    0.64
   6  -9  -1    2.21    0.63
   6  -9  -1    2.73    0.89
   6  -9  -1    0.91    0.42
   6  -9  -1    2.18    0.84
   6  -9  -1    1.17    0.57
  -8   9   2    0.58    0.78
  -8   9   2    0.62    0.84
  -8   9   2    0.12    0.60
   8  -9  -2    1.36    0.74
   8  -9  -2    2.75    1.20
   1  10  -3    0.67    0.63
   1  10  -3    0.70    0.62
   1  10  -3    1.75    0.89
  -1 -10   3   -0.46    0.63
  -1 -10   3    0.38    0.82
  -1 -10   3    1.31    0.96
  -1  10  -2    0.46    0.54
  -1  10  -2    1.43    0.55
  -1  10  -2    0.60    0.53
  -1  10  -2    0.83    0.73
  -1  10  -2    2.12    0.60
   1 -10   2    0.65    0.78
   1 -10   2    1.00    0.62
   1 -10   2    0.45    0.70
   1 -10   2   -0.06    0.56
  -3  10  -1    0.31    0.34
  -3  10  -1    0.20    0.60
  -3  10  -1   -0.04    0.55
  -3  10  -1    0.09    0.50
  -3  10  -1    0.27    0.46
   3 -10   1    0.09    0.66
   3 -10   1    0.57    0.64
   3 -10   1    0.47    0.60
   3 -10   1   -0.76    0.51
  -5  10   0    5.56    1.28
  -5  10   0    4.63    0.76
  -5  10   0    6.49    1.38
   5 -10   0    4.61    1.22
   5 -10   0    4.36    1.01
   5 -10   0    4.66    0.87
   5 -10   0    3.35    0.99
  -7  10   1    2.30    1.06
  -7  10   1    0.60    0.77
  -7  10   1   -0.14    0.75
   7 -10  -1   -0.47    0.98
   7 -10  -1    0.97    0.79
   0  11  -3    2.14    1.07
   0  11  -3    0.58    0.66
   0  11  -3    1.63    0.73
   0 -11   3    2.36    1.06
   0 -11   3    1.53    1.27
  -2  11  -2    0.09    0.54
  -2  11  -2    0.28    0.79
  -2  11  -2   -0.47    0.58
  -2  11  -2   -0.12    0.40
  -2  11  -2    1.56    0.77
   2 -11   2    1.06    0.82
   2 -11   2    0.30    0.70
   2 -11   2   -0.75    0.90
   2 -11   2   -0.40    0.70
  -4  11  -1    0.46    0.55
  -4  11  -1    0.26    0.44
  -4  11  -1   -0.22    0.69
  -4  11  -1    0.53    0.67
   4 -11   1   -1.44    0.54
   4 -11   1    0.47    0.68
   4 -11   1    1.22    0.90
  -6  11   0    0.61    0.95
  -6  11   0    1.22    0.76
  -6  11   0    1.51    0.92
   6 -11   0    0.10    0.82
   6 -11   0    3.83    1.10
   6 -11   0    0.01    0.62
  -3  12  -2    4.64    1.17
  -3  12  -2    7.17    1.43
  -3  12  -2    6.68    1.83
   3 -12   2    3.43    1.77
   3 -12   2    5.69    1.34
   3 -12   2    6.64    1.32
   3 -12   2    6.49    1.86
   3 -12   2    6.47    1.59
   6 -10   5    1.40    0.82
   6 -10   5    2.10    1.02
   6 -10   5    1.21    0.77
   6 -10   5    1.19    0.84
   6 -10   5    1.45    1.07
   6 -10   5    1.94    0.86
  -6  10  -5    2.89    0.77
  -6  10  -5    2.35    0.88
  -6  10  -5    2.48    1.05
   4 -10   6    3.12    1.04
   4 -10   6    1.89    0.91
   4 -10   6    4.47    1.17
   4 -10   6    2.59    0.92
   4 -10   6    2.26    1.00
   4 -10   6    4.46    1.14
   2 -10   7   -0.18    0.54
   2 -10   7   -0.15    0.74
   2 -10   7    1.16    0.83
   2 -10   7    0.19    0.71
   2 -10   7   -0.42    0.57
  -2  10  -7   -0.07    0.58
  -2  10  -7   -0.28    0.33
  -2  10  -7    0.17    0.31
  -2  10  -7   -0.36    0.57
   0 -10   8    1.86    1.24
   0 -10   8    0.94    1.32
   0  10  -8    1.38    0.94
   0  10  -8    2.53    1.08
   0  10  -8    2.29    1.13
   7  -9   4   10.88    2.12
   7  -9   4    7.10    1.61
   7  -9   4    9.19    1.29
   7  -9   4    5.55    0.94
  -7   9  -4    8.38    1.60
  -7   9  -4   11.75    1.55
  -7   9  -4    8.52    1.65
   5  -9   5    5.03    1.15
   5  -9   5    5.13    1.26
   5  -9   5    3.98    0.92
   5  -9   5    4.38    1.22
   5  -9   5    3.50    0.99
   5  -9   5    4.09    1.18
  -5   9  -5    3.92    0.49
  -5   9  -5    4.14    1.12
   3  -9   6    0.85    0.56
   3  -9   6   -1.01    0.48
   3  -9   6    0.70    0.62
   3  -9   6   -0.30    0.65
   3  -9   6   -0.05    0.55
  -3   9  -6    0.34    0.57
  -3   9  -6    0.47    0.17
  -3   9  -6    0.29    0.18
   1  -9   7    0.32    0.67
   1  -9   7    0.71    0.54
   1  -9   7    1.34    0.93
   1  -9   7    0.58    0.68
  -1   9  -7    0.27    0.34
  -1   9  -7    0.27    0.54
  -1   9  -7    0.59    0.38
  -1   9  -7    2.33    0.99
  -1   9  -7    0.80    0.67
  -1  -9   8    0.18    0.85
  -1  -9   8    0.84    1.02
   1   9  -8    0.75    0.57
   1   9  -8    0.70    0.86
   1   9  -8    0.73    0.65
   1   9  -8    1.99    0.93
   8  -8   3   -0.22    0.74
   8  -8   3    0.86    1.06
   8  -8   3    0.10    1.36
  -8   8  -3    0.76    0.87
  -8   8  -3    0.33    0.78
   6  -8   4   -0.11    0.64
   6  -8   4   -0.22    0.59
   6  -8   4    0.86    0.81
   6  -8   4   -0.20    0.48
  -6   8  -4    0.79    0.41
  -6   8  -4    0.75    0.69
  -6   8  -4    0.06    0.70
  -6   8  -4    0.70    0.65
   4  -8   5    1.13    0.68
   4  -8   5    1.17    0.57
   4  -8   5    1.13    0.71
   4  -8   5    1.24    0.56
   4  -8   5    1.88    0.66
   4  -8   5    0.36    0.60
  -4   8  -5    1.25    0.30
  -4   8  -5    0.40    0.48
  -4   8  -5    0.30    0.55
  -4   8  -5    1.33    0.28
  -4   8  -5    1.54    0.77
   2  -8   6    1.61    0.60
   2  -8   6    1.09    0.61
   2  -8   6    1.18    0.56
   2  -8   6    1.78    0.79
   2  -8   6    1.10    0.54
   2  -8   6    1.30    0.76
  -2   8  -6    1.40    0.59
  -2   8  -6    1.61    0.31
  -2   8  -6    1.52    0.32
  -2   8  -6    1.31    0.57
   0  -8   7   -0.03    0.60
   0  -8   7    0.87    0.51
   0  -8   7   -0.46    0.50
   0  -8   7    1.27    0.82
   0  -8   7   -0.03    0.46
   0   8  -7    0.97    0.41
   0   8  -7    0.50    0.53
   0   8  -7    0.42    0.37
   0   8  -7    0.76    0.69
   0   8  -7    0.31    0.60
  -2  -8   8    3.56    1.14
  -2  -8   8    2.58    1.05
   2   8  -8    4.69    1.17
   2   8  -8    3.77    0.97
   2   8  -8    5.27    1.36
   2   8  -8    4.00    1.04
   2   8  -8    4.96    1.40
   7  -7   3   -0.14    0.51
   7  -7   3    1.95    1.00
   7  -7   3    0.14    0.78
  -7   7  -3    1.90    0.95
  -7   7  -3    1.28    0.52
  -7   7  -3    1.56    0.89
  -7   7  -3    1.40    0.72
  -7   7  -3   -0.27    0.60
   5  -7   4    6.89    0.91
   5  -7   4    5.59    0.74
   5  -7   4    7.83    1.12
   5  -7   4    8.12    1.49
   5  -7   4    9.84    1.59
   5  -7   4    5.64    0.79
  -5   7  -4    7.26    1.04
  -5   7  -4    7.56    0.71
  -5   7  -4    8.96    1.54
  -5   7  -4    6.03    0.69
   3  -7   5    4.51    1.01
   3  -7   5    4.53    0.90
   3  -7   5    4.18    0.94
   3  -7   5    5.27    0.97
   3  -7   5    4.39    1.05
  -3   7  -5    4.05    0.37
  -3   7  -5    3.93    0.38
  -3   7  -5    4.12    0.94
  -3   7  -5    6.48    0.82
  -3   7  -5    4.48    0.94
   1  -7   6   21.92    1.70
   1  -7   6   26.14    1.96
   1  -7   6   24.39    2.06
   1  -7   6   23.62    2.00
  -1   7  -6   23.11    1.79
  -1   7  -6   21.89    1.44
  -1   7  -6   22.54    1.96
  -1   7  -6   24.63    1.96
  -1   7  -6   22.11    1.46
  -1  -7   7    2.92    0.61
  -1  -7   7    2.70    0.67
  -1  -7   7    4.31    1.27
  -1  -7   7    2.96    0.63
   1   7  -7    2.67    0.84
   1   7  -7    3.57    1.25
   1   7  -7    3.22    0.82
   1   7  -7    4.37    1.21
   1   7  -7    3.35    0.71
  -3  -7   8    1.03    1.04
  -3  -7   8    3.01    0.99
   3   7  -8    1.36    0.84
   3   7  -8    3.52    0.91
   3   7  -8    2.69    0.95
   3   7  -8    1.56    0.84
   3   7  -8    2.29    0.87
   8  -6   2   -0.44    0.72
   8  -6   2    0.52    0.68
  -8   6  -2    0.49    0.81
  -8   6  -2    0.03    0.83
  -8   6  -2    0.07    0.53
   6  -6   3    0.39    0.59
   6  -6   3    0.20    0.26
   6  -6   3   -0.48    0.34
   6  -6   3   -0.08    0.29
   6  -6   3   -0.31    0.28
   6  -6   3   -0.06    0.47
  -6   6  -3   -0.14    0.36
  -6   6  -3   -0.30    0.29
  -6   6  -3   -0.10    0.62
  -6   6  -3    0.04    0.40
   4  -6   4  173.46    8.60
   4  -6   4  165.09    9.09
   4  -6   4  159.40    8.70
   4  -6   4  159.12    8.67
  -4   6  -4  166.24    8.38
  -4   6  -4  170.51    8.93
  -4   6  -4  162.16    8.70
   2  -6   5    8.03    0.80
   2  -6   5    6.29    0.77
   2  -6   5    7.36    0.91
   2  -6   5    8.49    0.99
   2  -6   5    7.06    0.95
  -2   6  -5    5.66    0.48
  -2   6  -5    4.61    0.67
  -2   6  -5    7.41    0.93
  -2   6  -5    7.41    0.53
   0  -6   6    5.33    1.05
   0  -6   6    5.70    0.76
   0  -6   6    5.64    0.67
   0   6  -6    5.63    0.63
   0   6  -6    5.21    0.60
   0   6  -6    5.55    1.01
   0   6  -6    7.34    1.27
   0   6  -6    6.87    0.96
  -2  -6   7    4.61    1.18
  -2  -6   7    3.28    0.92
  -2  -6   7    3.07    0.51
  -2  -6   7    2.84    0.43
  -2  -6   7    4.91    0.54
   2   6  -7    2.99    0.81
   2   6  -7    2.86    0.74
   2   6  -7    3.75    0.97
   2   6  -7    3.57    1.02
   2   6  -7    3.46    0.90
  -4  -6   8    0.64    0.69
  -4  -6   8    0.22    0.60
   4   6  -8    0.66    0.56
   4   6  -8    0.53    0.70
   4   6  -8    0.12    0.53
   9  -5   1    0.85    0.85
   9  -5   1    2.53    1.05
   9  -5   1    0.39    0.92
  -9   5  -1    0.68    0.76
  -9   5  -1    0.66    0.84
  -9   5  -1    0.48    0.95
   7  -5   2    3.45    0.85
   7  -5   2    3.67    1.07
   7  -5   2    4.21    1.08
  -7   5  -2    3.21    0.93
  -7   5  -2    4.02    1.12
  -7   5  -2    4.61    1.06
  -7   5  -2    3.67    1.14
  -7   5  -2    3.99    0.88
   5  -5   3    2.27    0.55
   5  -5   3    1.49    0.36
   5  -5   3    1.96    0.80
   5  -5   3    1.94    0.38
   5  -5   3    2.10    0.72
   5  -5   3    1.66    0.62
  -5   5  -3    2.31    0.56
  -5   5  -3    2.05    0.50
  -5   5  -3    2.97    0.86
  -5   5  -3    1.87    0.74
  -5   5  -3    2.46    0.69
  -5   5  -3    1.60    0.45
   3  -5   4   17.10    1.37
   3  -5   4   17.67    1.30
   3  -5   4   16.56    1.25
   3  -5   4   18.13    1.27
   3  -5   4   15.68    1.48
   3  -5   4   16.79    1.28
   3  -5   4   15.66    1.43
  -3   5  -4   22.69    1.61
  -3   5  -4   19.43    1.53
  -3   5  -4   19.02    1.11
   1  -5   5    0.13    0.24
   1  -5   5    0.10    0.29
   1  -5   5    0.23    0.30
   1  -5   5   -0.32    0.34
   1  -5   5   -0.07    0.31
   1  -5   5    0.41    0.41
  -1   5  -5    0.15    0.33
  -1   5  -5   -0.07    0.26
  -1   5  -5   -0.21    0.33
  -1   5  -5   -0.05    0.11
  -1   5  -5    0.31    0.41
  -1   5  -5   -0.08    0.17
  -1  -5   6    5.14    0.85
  -1  -5   6    4.81    0.74
  -1  -5   6    5.17    0.82
  -1  -5   6    3.98    0.57
  -1  -5   6    4.72    1.05
   1   5  -6    5.04    0.88
   1   5  -6    4.49    0.98
   1   5  -6    5.53    1.03
   1   5  -6    3.85    0.55
   1   5  -6    5.29    0.78
   1   5  -6    4.14    0.71
  -3  -5   7    1.98    0.40
  -3  -5   7    2.28    0.82
  -3  -5   7    2.53    0.33
  -3  -5   7    1.10    0.50
  -3  -5   7    2.05    0.85
  -3  -5   7    2.05    0.38
   3   5  -7    2.01    0.80
   3   5  -7    3.03    0.92
   3   5  -7    1.54    0.36
   3   5  -7    1.97    0.64
   3   5  -7    2.92    0.82
   3   5  -7    1.66    0.66
  -5  -5   8   -0.50    0.68
  -5  -5   8    0.37    0.56
   5   5  -8    0.27    0.61
   5   5  -8    0.66    0.70
   5   5  -8    0.21    0.53
   8  -4   1    3.00    1.14
   8  -4   1    2.92    0.95
   8  -4   1    4.38    1.16
  -8   4  -1    2.14    0.98
  -8   4  -1    2.56    0.96
  -8   4  -1    3.55    1.04
  -8   4  -1    4.81    1.25
  -8   4  -1    3.60    1.28
   6  -4   2   -0.38    0.28
   6  -4   2    0.09    0.13
   6  -4   2    0.53    0.26
   6  -4   2    0.68    0.60
   6  -4   2    0.13    0.12
   6  -4   2   -0.06    0.44
   6  -4   2    0.51    0.49
  -6   4  -2    0.03    0.43
  -6   4  -2    0.30    0.50
  -6   4  -2    0.33    0.39
  -6   4  -2   -0.14    0.21
  -6   4  -2    0.26    0.60
  -6   4  -2   -0.12    0.47
   4  -4   3   12.93    1.23
   4  -4   3   13.32    1.31
   4  -4   3   12.52    0.84
   4  -4   3   14.41    1.07
   4  -4   3   11.09    1.02
   4  -4   3   13.07    1.07
   4  -4   3   12.34    0.99
  -4   4  -3   11.29    1.04
  -4   4  -3   13.43    1.01
  -4   4  -3   13.12    1.29
  -4   4  -3   13.94    1.27
  -4   4  -3   13.86    1.04
  -4   4  -3   12.91    1.24
  -4   4  -3   12.65    0.98
   2  -4   4    5.74    0.57
   2  -4   4    5.88    0.60
   2  -4   4    5.67    0.71
   2  -4   4    5.13    0.70
   2  -4   4    4.12    0.61
   2  -4   4    6.53    0.56
   2  -4   4    5.49    0.77
  -2   4  -4    4.85    0.44
  -2   4  -4    4.22    0.62
  -2   4  -4    5.05    0.57
   0  -4   5   59.28    3.30
   0  -4   5   56.54    3.48
   0  -4   5   49.27    4.05
   0  -4   5   53.99    3.31
   0  -4   5   55.64    3.22
   0  -4   5   55.73    3.14
   0  -4   5   56.94    3.25
   0   4  -5   53.17    3.21
   0   4  -5   58.56    3.10
   0   4  -5   58.33    3.37
   0   4  -5   56.78    3.45
   0   4  -5   57.70    3.13
   0   4  -5   61.15    3.19
   0   4  -5   60.77    3.51
  -2  -4   6    4.08    0.53
  -2  -4   6    4.04    0.49
  -2  -4   6    5.83    0.91
  -2  -4   6    5.21    1.04
   2   4  -6    4.27    0.81
   2   4  -6    5.40    1.07
   2   4  -6    4.02    0.63
   2   4  -6    4.24    0.78
   2   4  -6    3.77    0.49
   2   4  -6    6.24    1.14
  -4  -4   7    1.93    0.67
  -4  -4   7    1.21    0.65
  -4  -4   7    2.19    0.82
  -4  -4   7    2.02    0.40
  -4  -4   7    1.69    0.38
   4   4  -7    1.94    0.43
   4   4  -7    2.68    0.82
   4   4  -7    3.09    0.98
   4   4  -7    3.02    0.86
   4   4  -7    2.23    0.75
   4   4  -7    1.34    0.70
  -6  -4   8    0.51    0.80
  -6  -4   8    0.78    0.78
   6   4  -8   -0.66    0.48
   6   4  -8    1.21    0.83
   6   4  -8    0.99    0.55
   9  -3   0   -0.06    0.77
   9  -3   0    0.01    0.82
   9  -3   0    1.60    1.03
  -9   3   0    2.10    1.06
  -9   3   0    0.15    0.90
   7  -3   1    1.72    0.77
   7  -3   1    1.59    0.65
   7  -3   1    1.94    0.58
   7  -3   1    1.53    0.79
  -7   3  -1    1.26    0.60
  -7   3  -1    1.50    0.68
  -7   3  -1    1.25    0.64
  -7   3  -1    1.02    0.19
  -7   3  -1    2.50    0.91
  -7   3  -1    1.52    0.79
   5  -3   2    4.31    0.94
   5  -3   2    3.64    0.49
   5  -3   2    4.63    0.93
  -5   3  -2    4.39    0.81
  -5   3  -2    3.75    0.75
  -5   3  -2    4.41    0.96
  -5   3  -2    3.33    0.44
  -5   3  -2    4.12    0.85
   3  -3   3   46.11    2.82
   3  -3   3   47.73    2.44
   3  -3   3   45.07    2.37
   3  -3   3   45.13    2.54
   3  -3   3   45.23    2.83
   3  -3   3   42.26    2.32
   3  -3   3   44.27    2.72
   3  -3   3   41.12    2.26
   3  -3   3   43.03    2.73
   3  -3   3   43.37    2.52
  -3   3  -3   46.34    2.57
  -3   3  -3   43.71    2.73
  -3   3  -3   42.81    2.50
  -3   3  -3   44.89    2.74
  -3   3  -3   44.76    2.49
   1  -3   4    3.52    0.62
   1  -3   4    3.06    0.35
   1  -3   4    4.08    0.72
   1  -3   4    4.30    0.72
   1  -3   4    4.01    0.71
   1  -3   4    3.42    0.47
   1  -3   4    3.42    0.46
   1  -3   4    2.85    0.35
  -1   3  -4    4.39    0.73
  -1   3  -4    3.15    0.34
  -1   3  -4    2.88    0.32
  -1   3  -4    4.06    0.74
  -1   3  -4    4.59    0.75
  -1   3  -4    3.42    0.47
  -1   3  -4    3.05    0.34
  -1  -3   5    0.48    0.28
  -1  -3   5    0.68    0.27
  -1  -3   5    1.00    0.42
  -1  -3   5    0.53    0.37
  -1  -3   5    0.61    0.24
  -1  -3   5    0.54    0.32
  -1  -3   5    0.72    0.24
  -1  -3   5    0.85    0.42
  -1  -3   5    0.57    0.25
   1   3  -5    0.42    0.24
   1   3  -5    0.86    0.28
   1   3  -5    0.30    0.25
   1   3  -5    0.80    0.29
   1   3  -5    0.43    0.38
   1   3  -5    0.52    0.31
   1   3  -5    1.16    0.44
  -3  -3   6    2.49    0.50
  -3  -3   6    2.17    0.78
  -3  -3   6    2.39    0.54
  -3  -3   6    2.58    0.46
   3   3  -6    2.09    0.68
   3   3  -6    0.52    0.28
   3   3  -6    1.44    0.50
   3   3  -6    1.27    0.42
   3   3  -6    0.66    0.32
   3   3  -6    1.50    0.47
   3   3  -6    0.77    0.42
  -5  -3   7    0.72    0.36
  -5  -3   7    1.04    0.71
  -5  -3   7    1.30    0.57
  -5  -3   7    0.75    0.53
   5   3  -7    1.62    0.66
   5   3  -7    0.18    0.43
   5   3  -7    1.85    0.72
   5   3  -7    2.24    0.87
   5   3  -7    1.10    0.43
  -7  -3   8   -0.11    0.86
  -7  -3   8    0.45    0.87
   7   3  -8    0.33    0.73
   7   3  -8   -0.61    0.71
   7   3  -8   -0.28    0.76
   8  -2   0    0.76    0.67
   8  -2   0    2.58    0.93
   8  -2   0    1.37    0.78
  -8   2   0    3.42    1.00
  -8   2   0    2.11    1.58
  -8   2   0    3.61    1.11
   6  -2   1    1.19    0.52
   6  -2   1    1.56    0.53
   6  -2   1    0.79    0.55
   6  -2   1   -0.21    0.31
   6  -2   1   -0.15    0.22
  -6   2  -1   -0.01    0.47
  -6   2  -1    0.04    0.24
  -6   2  -1    1.36    0.62
  -6   2  -1    0.38    0.51
  -6   2  -1   -0.03    0.36
  -6   2  -1   -0.18    0.47
   4  -2   2   22.70    1.63
   4  -2   2   23.74    1.48
   4  -2   2   24.56    1.76
   4  -2   2   22.85    1.55
   4  -2   2   25.98    1.87
   4  -2   2   21.71    1.77
   4  -2   2   22.15    1.72
  -4   2  -2   23.84    1.74
  -4   2  -2   25.66    1.80
  -4   2  -2   24.48    1.49
  -4   2  -2   27.45    1.82
   2  -2   3    9.56    0.80
   2  -2   3    5.72    0.69
   2  -2   3    4.85    0.62
   2  -2   3    7.24    0.53
   2  -2   3    6.27    0.72
  -2   2  -3    7.60    0.60
  -2   2  -3    8.34    0.50
  -2   2  -3    6.10    0.52
  -2   2  -3    6.26    0.59
  -2   2  -3    8.98    0.78
  -2   2  -3    8.77    0.69
  -2   2  -3    5.59    0.68
   0  -2   4   67.69    3.43
   0  -2   4   67.75    3.64
   0  -2   4   63.34    3.65
   0  -2   4   65.75    3.38
   0  -2   4   66.96    3.59
   0  -2   4   62.96    3.55
   0  -2   4   62.55    3.64
   0   2  -4   65.52    3.49
   0   2  -4   67.64    3.68
   0   2  -4   64.46    3.58
   0   2  -4   69.33    3.70
   0   2  -4   64.40    3.55
   0   2  -4   67.32    3.39
   0   2  -4   65.26    3.60
   0   2  -4   68.42    3.52
  -2  -2   5    4.06    0.79
  -2  -2   5    5.12    0.72
  -2  -2   5    3.34    0.57
  -2  -2   5    2.84    0.54
  -2  -2   5    4.07    0.66
  -2  -2   5    3.96    0.63
  -2  -2   5    4.23    0.75
  -2  -2   5    2.78    0.62
  -2  -2   5    3.31    0.45
   2   2  -5    4.10    0.57
   2   2  -5    3.20    0.44
   2   2  -5    4.08    0.78
   2   2  -5    2.99    0.43
   2   2  -5    3.90    0.75
   2   2  -5    3.50    0.50
   2   2  -5    5.61    0.71
   2   2  -5    3.40    0.48
  -4  -2   6    1.05    0.43
  -4  -2   6    1.10    0.52
  -4  -2   6    0.77    0.46
  -4  -2   6    1.18    0.36
   4   2  -6    2.02    0.70
   4   2  -6    1.04    0.55
   4   2  -6    1.33    0.58
   4   2  -6    1.12    0.45
   4   2  -6    0.93    0.55
   4   2  -6    1.03    0.60
  -6  -2   7    3.13    0.88
  -6  -2   7    2.08    0.66
  -6  -2   7    2.06    0.52
  -6  -2   7    1.45    0.55
  -6  -2   7    1.64    0.75
   6   2  -7    0.19    0.65
   6   2  -7    0.89    0.72
  -8  -2   8    1.80    1.19
  -8  -2   8    2.13    1.18
   8   2  -8    1.42    1.01
   8   2  -8    2.49    1.16
   9  -1  -1   -0.47    0.56
   9  -1  -1    2.42    0.97
   9  -1  -1   -0.07    0.70
  -9   1   1    1.29    0.92
  -9   1   1   -0.48    0.91
   7  -1   0   31.95    2.23
   7  -1   0   29.71    2.20
   7  -1   0   28.19    2.25
   7  -1   0   28.29    2.25
   7  -1   0   27.90    1.76
  -7   1   0   26.99    2.29
  -7   1   0   26.50    1.76
  -7   1   0   29.24    2.18
  -7   1   0   26.15    1.73
  -7   1   0   27.02    1.76
  -7   1   0   25.60    2.20
   5  -1   1    3.63    0.47
   5  -1   1    4.62    0.94
   5  -1   1    5.47    0.91
   5  -1   1    5.36    0.94
   5  -1   1    4.33    0.61
  -5   1  -1    3.73    0.76
  -5   1  -1    4.71    0.89
  -5   1  -1    4.63    0.94
  -5   1  -1    3.84    0.37
  -5   1  -1    3.96    0.51
   3  -1   2   22.51    1.55
   3  -1   2   21.02    1.43
   3  -1   2   22.98    1.46
   3  -1   2   22.35    1.61
   3  -1   2   21.41    1.56
   3  -1   2   21.68    1.39
  -3   1  -2   23.30    1.45
  -3   1  -2   22.41    1.59
  -3   1  -2   21.04    1.49
  -3   1  -2   21.94    1.53
  -3   1  -2   22.95    1.49
  -3   1  -2   22.45    1.39
   1  -1   3    4.78    0.42
   1  -1   3    3.89    0.49
   1  -1   3    3.90    0.47
   1  -1   3    4.35    0.37
   1  -1   3    4.26    0.40
   1  -1   3    4.58    0.30
   1  -1   3    4.95    0.58
   1  -1   3    4.40    0.51
  -1   1  -3    4.13    0.49
  -1   1  -3    4.43    0.37
  -1   1  -3    4.21    0.52
  -1   1  -3    3.98    0.51
  -1   1  -3    4.51    0.50
  -1   1  -3    4.05    0.44
  -1   1  -3    4.30    0.29
  -1  -1   4   10.77    0.86
  -1  -1   4   11.29    0.80
  -1  -1   4   11.62    0.88
  -1  -1   4   10.94    0.82
  -1  -1   4    9.92    0.80
  -1  -1   4   10.21    0.84
  -1  -1   4   11.06    0.88
  -1  -1   4   10.40    0.71
  -1  -1   4    9.91    0.84
   1   1  -4    9.92    0.86
   1   1  -4   10.37    0.85
   1   1  -4   13.24    0.94
   1   1  -4    9.80    0.82
   1   1  -4   11.32    0.85
   1   1  -4   10.10    0.86
  -3  -1   5    6.04    0.70
  -3  -1   5    5.67    0.69
  -3  -1   5    4.15    0.75
  -3  -1   5    5.24    0.61
  -3  -1   5    5.49    0.66
  -3  -1   5    5.56    0.64
  -3  -1   5    5.46    0.61
   3   1  -5    2.89    0.65
   3   1  -5    7.61    1.55
   3   1  -5    4.61    0.65
   3   1  -5    3.53    0.52
   3   1  -5    4.52    0.62
   3   1  -5    4.95    0.64
   3   1  -5    4.74    0.63
   3   1  -5    4.64    0.61
  -5  -1   6    0.87    0.57
  -5  -1   6    0.21    0.38
  -5  -1   6    0.84    0.58
  -5  -1   6    0.91    0.38
  -5  -1   6    0.87    0.53
   5   1  -6    1.46    0.68
   5   1  -6    1.20    0.60
   5   1  -6    1.13    0.64
   5   1  -6    0.79    0.56
   5   1  -6    0.97    0.48
   5   1  -6    0.63    0.49
  -7  -1   7   -0.26    0.74
  -7  -1   7    0.11    0.53
  -7  -1   7    0.23    0.63
  -7  -1   7   -0.08    0.61
  -7  -1   7    0.04    0.51
   7   1  -7   -0.20    0.63
   7   1  -7    0.52    0.67
   7   1  -7    1.40    0.72
   8   0  -1    0.20    0.77
   8   0  -1    1.02    0.66
   8   0  -1   -0.42    0.58
   8   0  -1   -0.50    0.66
   8   0  -1   -0.19    0.45
  -8   0   1    0.44    0.56
  -8   0   1   -0.20    0.48
  -8   0   1    1.05    0.71
   6   0   0   12.89    1.33
   6   0   0   13.45    1.09
   6   0   0   14.37    1.32
   6   0   0   15.13    1.44
   6   0   0   15.31    1.40
  -6   0   0   14.10    1.08
  -6   0   0   14.46    1.16
  -6   0   0   14.79    1.31
  -6   0   0   14.27    1.48
  -6   0   0   12.79    1.39
   4   0   1    3.70    0.61
   4   0   1    4.94    0.83
   4   0   1    3.12    0.67
   4   0   1    3.17    0.64
   4   0   1    4.11    0.83
   4   0   1    2.78    0.36
   4   0   1    4.56    0.79
  -4   0  -1    3.33    0.37
  -4   0  -1    3.65    0.65
  -4   0  -1    3.18    0.67
  -4   0  -1    5.17    0.83
  -4   0  -1    3.12    0.72
  -4   0  -1    3.56    0.60
   2   0   2   11.17    0.92
   2   0   2   11.21    0.87
   2   0   2   11.62    0.93
   2   0   2   11.25    0.88
   2   0   2   12.54    0.88
  -2   0  -2   11.01    0.91
  -2   0  -2   10.26    0.81
  -2   0  -2   13.40    0.92
  -2   0  -2   10.42    0.89
  -2   0  -2   10.55    0.64
  -2   0  -2   10.43    0.64
  -2   0  -2   11.81    0.92
  -2   0  -2    9.70    0.77
   0   0   3  285.77   14.54
   0   0   3  294.17   14.48
   0   0   3  297.63   14.47
   0   0   3  273.17   14.48
   0   0   3  295.75   14.42
   0   0   3  294.73   14.48
   0   0   3  297.89   14.51
   0   0  -3  285.04   14.56
   0   0  -3  286.19   14.47
   0   0  -3  276.38   14.49
   0   0  -3  310.02   14.46
   0   0  -3  301.31   14.47
   0   0  -3  291.41   14.26
   0   0  -3  294.43   14.54
   0   0  -3  283.62   14.49
  -2   0   4  111.94    6.13
  -2   0   4  120.13    6.11
  -2   0   4  115.38    6.04
  -2   0   4  121.07    6.19
  -2   0   4  120.11    6.09
  -2   0   4  117.72    6.15
  -2   0   4  115.61    6.10
  -2   0   4  121.97    6.12
  -2   0   4  117.00    6.16
   2   0  -4  117.39    6.19
   2   0  -4  115.11    6.14
   2   0  -4  118.14    6.06
   2   0  -4  114.90    6.18
   2   0  -4  121.53    6.11
   2   0  -4  125.62    6.19
   2   0  -4  116.54    6.12
   2   0  -4  110.74    6.07
  -4   0   5   14.23    1.19
  -4   0   5   12.60    1.16
  -4   0   5   17.52    1.15
  -4   0   5   13.91    1.23
  -4   0   5   12.82    1.11
  -4   0   5   14.14    1.41
  -4   0   5   12.01    1.24
   4   0  -5   18.12    1.52
   4   0  -5   16.50    1.48
   4   0  -5   12.85    1.20
   4   0  -5   14.99    1.28
   4   0  -5   12.37    1.14
   4   0  -5   14.30    1.11
   4   0  -5   13.84    1.23
  -6   0   6    6.00    0.96
  -6   0   6    6.31    1.15
  -6   0   6    6.20    0.81
  -6   0   6    5.85    0.86
  -6   0   6    4.61    0.85
  -6   0   6    6.83    0.97
   6   0  -6    6.44    0.80
   6   0  -6    6.32    1.16
   6   0  -6    6.24    1.24
   6   0  -6    7.86    1.42
  -8   0   7    0.91    0.65
  -8   0   7    0.38    0.63
  -8   0   7    1.40    0.75
  -8   0   7    1.02    0.82
  -8   0   7   -0.24    0.74
   8   0  -7    1.27    0.90
   8   0  -7    1.00    0.72
   8   0  -7    0.32    0.63
   7   1  -1    0.89    0.54
   7   1  -1    0.34    0.69
   7   1  -1   -0.01    0.45
   7   1  -1   -0.04    0.40
   7   1  -1    0.71    0.54
  -7  -1   1   -0.25    0.56
  -7  -1   1    0.69    0.47
  -7  -1   1    1.52    0.72
   5   1   0    1.73    0.63
   5   1   0    1.12    0.44
   5   1   0    2.00    0.65
   5   1   0    2.26    0.53
   5   1   0    2.12    0.61
   5   1   0    1.84    0.54
   5   1   0    1.52    0.58
  -5  -1   0    2.40    0.76
  -5  -1   0    1.73    0.62
  -5  -1   0    2.68    0.74
  -5  -1   0    1.67    0.56
  -5  -1   0    1.78    0.48
   3   1   1   60.62    3.49
   3   1   1   64.62    3.67
   3   1   1   57.65    3.35
   3   1   1   58.70    3.49
   3   1   1   60.80    3.56
   3   1   1   66.08    3.54
   3   1   1   60.77    3.45
   3   1   1   64.92    3.64
   3   1   1   63.02    3.45
   3   1   1   66.73    3.64
  -3  -1  -1   65.21    3.52
  -3  -1  -1   69.75    3.69
  -3  -1  -1   60.73    3.35
  -3  -1  -1   66.06    3.63
  -3  -1  -1   65.83    3.71
  -3  -1  -1   60.01    3.55
   1   1   2    3.96    0.41
   1   1   2    3.54    0.44
   1   1   2    4.32    0.46
   1   1   2    3.47    0.39
   1   1   2    3.52    0.46
   1   1   2    3.60    0.37
   1   1   2    3.88    0.46
   1   1   2    4.03    0.44
  -1  -1  -2    3.63    0.43
  -1  -1  -2    4.18    0.39
  -1  -1  -2    3.52    0.46
  -1  -1  -2    3.71    0.53
  -1  -1  -2    4.01    0.40
  -1  -1  -2    3.08    0.42
  -1  -1  -2    4.27    0.45
  -1  -1  -2    3.98    0.46
  -1   1   3   22.32    1.38
  -1   1   3   21.12    1.36
  -1   1   3   20.18    1.30
  -1   1   3   19.75    1.42
  -1   1   3   21.94    1.30
  -1   1   3   19.35    1.20
  -1   1   3   21.02    1.20
  -1   1   3   21.99    1.33
   1  -1  -3   19.78    1.18
   1  -1  -3   18.99    1.26
   1  -1  -3   22.43    1.41
   1  -1  -3   21.83    1.32
   1  -1  -3   20.66    1.30
   1  -1  -3   20.15    1.21
   1  -1  -3   21.71    1.36
   1  -1  -3   19.54    1.31
  -3   1   4   14.50    1.03
  -3   1   4   17.38    1.18
  -3   1   4   16.57    1.24
  -3   1   4   15.99    1.22
  -3   1   4   15.76    1.19
  -3   1   4   16.65    1.19
  -3   1   4   15.32    1.04
  -3   1   4   13.31    1.16
   3  -1  -4   15.44    1.17
   3  -1  -4   13.43    1.10
   3  -1  -4   14.30    1.04
   3  -1  -4   14.04    1.16
   3  -1  -4   17.53    1.09
   3  -1  -4   14.75    1.20
  -5   1   5    5.43    0.75
  -5   1   5    5.33    0.73
  -5   1   5    5.80    0.83
  -5   1   5    4.97    0.57
   5  -1  -5    6.69    1.23
   5  -1  -5    7.49    1.07
   5  -1  -5    5.92    0.75
   5  -1  -5    4.72    0.59
   5  -1  -5    6.64    1.11
   5  -1  -5    6.71    1.09
  -7   1   6    6.74    1.21
  -7   1   6    6.21    1.24
  -7   1   6    4.99    0.72
  -7   1   6    7.42    0.80
  -7   1   6    8.50    1.19
   7  -1  -6   11.20    1.31
   7  -1  -6    6.74    1.53
   7  -1  -6    7.69    1.46
  -9   1   7   -0.03    0.71
  -9   1   7    1.35    0.75
  -9   1   7   -0.85    0.64
  -9   1   7    0.81    0.85
   9  -1  -7    0.94    1.03
   9  -1  -7    0.21    0.94
   8   2  -2    0.21    0.98
   8   2  -2   -0.96    0.55
   8   2  -2    0.28    0.68
   8   2  -2   -0.69    0.67
   8   2  -2   -0.29    0.82
  -8  -2   2    1.64    0.99
  -8  -2   2   -0.31    0.73
  -8  -2   2    2.51    0.90
   6   2  -1    3.49    0.70
   6   2  -1    4.18    1.03
   6   2  -1    6.33    0.89
   6   2  -1    4.95    0.91
   6   2  -1    4.28    0.82
   6   2  -1    5.34    1.18
  -6  -2   1    5.15    1.12
  -6  -2   1    4.45    0.89
  -6  -2   1    3.42    1.09
   4   2   0    9.72    1.04
   4   2   0   10.40    1.06
   4   2   0   10.13    0.88
   4   2   0    9.68    0.83
   4   2   0   10.07    0.88
   4   2   0    9.87    0.90
   4   2   0   10.28    0.95
   4   2   0    9.86    0.98
  -4  -2   0   10.87    1.01
  -4  -2   0   10.01    1.14
  -4  -2   0   10.94    1.10
  -4  -2   0   10.22    1.03
  -4  -2   0   10.64    1.03
   2   2   1    0.58    0.27
   2   2   1    0.30    0.25
   2   2   1    0.67    0.25
   2   2   1    0.47    0.22
   2   2   1    0.29    0.30
   2   2   1    0.15    0.22
   2   2   1    0.70    0.23
   2   2   1    0.34    0.19
  -2  -2  -1    0.16    0.19
  -2  -2  -1    0.20    0.25
  -2  -2  -1    0.96    0.35
  -2  -2  -1    0.51    0.27
  -2  -2  -1    0.38    0.30
  -2  -2  -1    0.63    0.24
  -2  -2  -1    1.10    0.35
  -2  -2  -1    0.26    0.24
   0   2   2   86.34    4.51
   0   2   2   86.59    4.53
   0   2   2   87.78    4.55
   0   2   2   86.28    4.55
   0   2   2   86.30    4.51
   0   2   2   88.42    4.56
   0   2   2   87.50    4.47
   0   2   2   87.23    4.58
   0  -2  -2   83.56    4.58
   0  -2  -2   86.11    4.50
   0  -2  -2   83.21    4.54
   0  -2  -2   86.06    4.50
   0  -2  -2   84.75    4.47
   0  -2  -2   90.44    4.55
   0  -2  -2   85.16    4.54
   0  -2  -2   87.39    4.53
  -2   2   3   47.05    2.63
  -2   2   3   44.76    2.63
  -2   2   3   46.30    2.35
  -2   2   3   46.72    2.58
  -2   2   3   45.47    2.63
  -2   2   3   48.85    2.73
  -2   2   3   45.28    2.35
  -2   2   3   46.36    2.53
  -2   2   3   50.29    2.85
   2  -2  -3   45.76    2.59
   2  -2  -3   44.31    2.67
   2  -2  -3   45.32    2.53
   2  -2  -3   45.01    2.58
   2  -2  -3   46.42    2.65
   2  -2  -3   41.81    2.60
   2  -2  -3   51.37    2.65
   2  -2  -3   44.69    2.62
  -4   2   4    7.99    0.83
  -4   2   4    8.57    0.69
  -4   2   4    8.67    0.88
  -4   2   4    8.80    0.71
  -4   2   4    7.17    0.84
  -4   2   4    8.31    0.89
  -4   2   4    8.57    0.87
  -4   2   4    7.92    0.86
   4  -2  -4    8.00    0.67
   4  -2  -4    9.03    0.89
   4  -2  -4    9.16    0.92
   4  -2  -4    8.60    0.87
   4  -2  -4    8.32    0.70
   4  -2  -4    7.61    0.84
   4  -2  -4    7.07    0.85
  -6   2   5    7.19    1.10
  -6   2   5    6.66    1.18
  -6   2   5    5.60    0.57
  -6   2   5    8.42    1.46
  -6   2   5    6.51    1.17
  -6   2   5    4.53    0.52
  -6   2   5    6.87    1.20
   6  -2  -5    4.90    0.54
   6  -2  -5    6.37    1.04
   6  -2  -5    6.10    0.88
   6  -2  -5    6.36    0.91
   6  -2  -5    8.14    1.40
  -8   2   6    4.61    1.12
  -8   2   6    5.95    1.12
  -8   2   6    6.27    1.39
  -8   2   6    7.10    1.38
   8  -2  -6    7.31    1.22
   8  -2  -6    4.62    1.34
   7   3  -2   -0.15    0.48
   7   3  -2    0.56    0.76
   7   3  -2    0.54    0.59
   7   3  -2    1.04    0.90
   7   3  -2   -0.57    0.38
  -7  -3   2   -0.18    0.69
  -7  -3   2    2.01    1.05
  -7  -3   2   -0.15    0.53
   5   3  -1    3.27    0.88
   5   3  -1    1.43    0.39
   5   3  -1    2.64    0.75
   5   3  -1    1.66    0.70
   5   3  -1    1.69    0.41
   5   3  -1    2.09    0.49
   5   3  -1    1.26    0.47
  -5  -3   1    0.92    0.73
  -5  -3   1    3.03    0.74
  -5  -3   1    2.70    0.78
   3   3   0   17.60    1.17
   3   3   0   18.71    1.19
   3   3   0   18.40    1.41
   3   3   0   17.81    1.15
   3   3   0   18.13    1.46
   3   3   0   18.59    1.15
   3   3   0   18.52    1.48
   3   3   0   19.17    1.65
   3   3   0   19.00    1.51
  -3  -3   0   17.60    1.43
  -3  -3   0   18.63    1.54
  -3  -3   0   17.40    1.35
  -3  -3   0   18.82    1.48
   1   3   1   35.52    2.27
   1   3   1   36.80    2.32
   1   3   1   39.27    2.17
   1   3   1   36.93    2.33
   1   3   1   37.93    2.30
   1   3   1   39.13    2.31
   1   3   1   37.14    2.28
   1   3   1   38.13    2.13
  -1  -3  -1   37.87    2.15
  -1  -3  -1   37.68    2.32
  -1  -3  -1   39.86    2.39
  -1  -3  -1   38.50    2.29
  -1  -3  -1   38.21    2.29
  -1  -3  -1   40.79    2.15
  -1  -3  -1   38.58    2.31
  -1  -3  -1   40.86    2.31
  -1  -3  -1   38.57    2.26
  -1   3   2   75.74    4.03
  -1   3   2   73.51    3.99
  -1   3   2   74.93    4.01
  -1   3   2   74.04    3.79
  -1   3   2   75.94    4.05
  -1   3   2   74.58    4.04
  -1   3   2   78.54    3.99
   1  -3  -2   77.17    3.94
   1  -3  -2   70.51    4.01
   1  -3  -2   72.37    3.79
   1  -3  -2   74.43    3.95
   1  -3  -2   74.09    4.02
   1  -3  -2   79.82    4.09
   1  -3  -2   72.82    4.00
   1  -3  -2   68.94    3.95
  -3   3   3   19.67    1.56
  -3   3   3   22.08    1.58
  -3   3   3   21.92    1.48
  -3   3   3   20.71    1.50
   3  -3  -3   23.50    1.66
   3  -3  -3   19.11    1.64
  -5   3   4   25.91    1.59
  -5   3   4   23.70    1.94
  -5   3   4   25.22    1.87
  -5   3   4   25.00    1.44
  -5   3   4   23.85    1.88
  -5   3   4   23.33    1.86
   5  -3  -4   24.52    1.83
   5  -3  -4   24.42    1.56
   5  -3  -4   24.37    1.77
   5  -3  -4   26.64    1.95
  -7   3   5   23.43    2.29
  -7   3   5   16.78    1.74
  -7   3   5   22.49    2.04
  -7   3   5   24.13    1.98
   7  -3  -5   21.80    1.94
   7  -3  -5   19.54    1.76
   7  -3  -5   20.14    1.81
  -9   3   6    0.27    0.85
  -9   3   6    0.28    0.72
  -9   3   6    1.17    0.77
  -9   3   6   -0.78    0.69
   9  -3  -6    1.50    0.87
   9  -3  -6    1.40    0.91
   6   4  -2    1.23    0.70
   6   4  -2    0.69    0.84
   6   4  -2    1.29    0.70
   6   4  -2    0.93    0.25
  -6  -4   2    0.12    0.81
  -6  -4   2    1.16    0.77
  -6  -4   2    0.58    0.64
   4   4  -1    1.43    0.50
   4   4  -1    1.49    0.61
   4   4  -1    1.49    0.28
   4   4  -1    1.62    0.30
   4   4  -1    2.56    0.82
   4   4  -1    1.74    0.28
   4   4  -1    2.04    0.75
  -4  -4   1    2.12    0.69
  -4  -4   1    1.91    0.84
  -4  -4   1    1.25    0.54
   2   4   0    8.14    0.56
   2   4   0    6.34    0.80
   2   4   0    5.84    0.78
   2   4   0    6.81    0.82
  -2  -4   0    6.66    0.77
  -2  -4   0    6.96    0.79
  -2  -4   0    7.88    0.57
  -2  -4   0    8.13    1.07
   0   4   1   72.13    3.88
   0   4   1   71.48    4.00
   0   4   1   73.34    3.79
   0   4   1   72.34    3.86
   0   4   1   72.31    3.83
   0  -4  -1   71.72    3.83
   0  -4  -1   65.87    3.96
   0  -4  -1   80.72    4.04
   0  -4  -1   65.59    3.85
   0  -4  -1   74.25    3.90
   0  -4  -1   73.32    3.84
   0  -4  -1   60.60    4.03
  -2   4   2    7.08    0.67
  -2   4   2    7.49    0.76
  -2   4   2    8.67    0.71
  -2   4   2    7.71    0.81
   2  -4  -2    6.59    0.74
   2  -4  -2    6.73    0.69
   2  -4  -2    6.55    0.44
   2  -4  -2    8.66    0.64
  -4   4   3    1.53    0.50
  -4   4   3    2.47    0.42
  -4   4   3    3.40    0.69
  -4   4   3    2.24    0.21
  -4   4   3    1.78    0.59
  -4   4   3    2.09    0.54
  -4   4   3    2.81    0.70
   4  -4  -3    2.77    0.55
   4  -4  -3    2.77    0.71
   4  -4  -3    2.65    0.36
   4  -4  -3    1.79    0.20
   4  -4  -3    2.59    0.65
  -6   4   4    7.36    1.16
  -6   4   4    8.49    1.40
  -6   4   4    7.16    1.30
  -6   4   4    5.71    0.66
  -6   4   4    5.16    0.97
   6  -4  -4    6.89    1.07
   6  -4  -4    6.50    1.29
   6  -4  -4    6.86    1.17
   6  -4  -4    5.24    0.64
  -8   4   5    0.12    0.70
  -8   4   5    0.68    0.63
  -8   4   5    1.08    0.80
  -8   4   5    1.19    0.95
   8  -4  -5    1.94    0.97
   8  -4  -5    0.58    0.63
   8  -4  -5    0.92    0.51
   5   5  -2    1.96    0.78
   5   5  -2    1.56    0.87
   5   5  -2    2.23    0.90
   5   5  -2    1.09    0.87
  -5  -5   2    1.47    0.76
  -5  -5   2    2.44    0.97
  -5  -5   2    1.86    0.79
   3   5  -1   21.19    1.82
   3   5  -1   22.09    1.92
   3   5  -1   23.15    1.85
   3   5  -1   25.54    1.96
  -3  -5   1   24.50    1.82
  -3  -5   1   23.20    1.95
  -3  -5   1   26.80    2.08
   1   5   0   15.42    1.26
   1   5   0   15.32    1.03
   1   5   0   16.25    1.02
   1   5   0   15.79    1.40
   1   5   0   16.00    1.31
   1   5   0   16.82    1.40
  -1  -5   0   15.86    1.42
  -1  -5   0   16.42    1.04
  -1  -5   0   15.15    1.34
  -1  -5   0   17.82    1.44
  -1  -5   0   15.85    1.02
  -1  -5   0   15.79    1.20
  -1   5   1    1.14    0.45
  -1   5   1    0.26    0.25
  -1   5   1    0.48    0.31
  -1   5   1    1.07    0.37
  -1   5   1    0.78    0.30
  -1   5   1    1.27    0.36
  -1   5   1    0.96    0.32
   1  -5  -1    0.60    0.31
   1  -5  -1    1.11    0.38
   1  -5  -1    1.08    0.27
   1  -5  -1    0.71    0.25
   1  -5  -1    0.85    0.38
   1  -5  -1    0.62    0.27
   1  -5  -1    1.03    0.44
   1  -5  -1    1.42    0.46
  -3   5   2    7.02    0.89
  -3   5   2    8.57    0.88
  -3   5   2    6.40    0.79
   3  -5  -2    7.25    0.71
   3  -5  -2    6.71    0.58
   3  -5  -2    7.25    0.85
   3  -5  -2    6.21    0.40
   3  -5  -2    6.82    0.41
   3  -5  -2    8.61    0.92
   3  -5  -2    7.64    0.60
  -5   5   3    2.87    0.64
  -5   5   3    4.98    0.97
  -5   5   3    3.16    0.41
  -5   5   3    3.94    0.35
  -5   5   3    4.71    1.02
   5  -5  -3    5.46    0.92
   5  -5  -3    4.84    1.00
   5  -5  -3    3.74    0.41
   5  -5  -3    3.43    0.61
  -7   5   4    2.46    0.98
  -7   5   4    3.67    0.73
  -7   5   4    5.56    1.25
  -7   5   4    4.39    1.04
  -7   5   4    4.98    1.25
   7  -5  -4    4.33    1.00
   7  -5  -4    3.82    0.80
   7  -5  -4    3.39    0.68
  -9   5   5    3.16    1.36
  -9   5   5    1.71    1.18
  -9   5   5    2.18    0.89
  -9   5   5    0.61    0.72
   9  -5  -5    3.01    0.88
   9  -5  -5    1.24    0.79
   6   6  -3    4.53    1.38
   6   6  -3    5.30    1.31
   6   6  -3    4.12    1.15
  -6  -6   3    3.43    1.28
  -6  -6   3    4.04    1.26
   4   6  -2    0.31    0.58
   4   6  -2   -0.03    0.57
   4   6  -2    0.38    0.64
   4   6  -2    0.16    0.65
  -4  -6   2   -0.79    0.71
  -4  -6   2    0.68    0.68
  -4  -6   2    0.98    0.64
   2   6  -1    1.16    0.60
   2   6  -1    0.97    0.62
   2   6  -1    0.41    0.47
   2   6  -1    0.14    0.39
  -2  -6   1    1.32    0.69
  -2  -6   1    2.23    0.78
  -2  -6   1    1.27    0.58
  -2  -6   1    0.72    0.38
   0   6   0   10.02    0.80
   0   6   0   10.28    1.07
   0   6   0    8.05    1.03
   0   6   0    8.61    0.92
   0   6   0   10.01    0.91
   0   6   0    9.80    0.83
   0   6   0    9.30    0.88
   0  -6   0    9.17    0.97
   0  -6   0    9.70    1.05
   0  -6   0    9.82    0.80
   0  -6   0    9.65    0.75
   0  -6   0   11.03    1.11
   0  -6   0    9.34    0.82
  -2   6   1    0.08    0.31
  -2   6   1    0.14    0.59
  -2   6   1   -0.17    0.21
  -2   6   1    0.46    0.37
  -2   6   1    0.68    0.46
  -2   6   1   -0.03    0.30
   2  -6  -1    0.01    0.31
   2  -6  -1   -0.02    0.22
   2  -6  -1    0.13    0.19
   2  -6  -1    0.23    0.21
   2  -6  -1    0.07    0.28
   2  -6  -1    0.01    0.40
  -4   6   2   17.51    1.29
  -4   6   2   17.23    1.60
  -4   6   2   18.37    1.36
  -4   6   2   19.08    1.59
  -4   6   2   19.74    1.39
   4  -6  -2   18.43    1.61
   4  -6  -2   18.11    1.53
   4  -6  -2   18.43    1.33
   4  -6  -2   16.89    1.28
   4  -6  -2   17.10    0.98
   4  -6  -2   17.94    0.99
  -6   6   3    0.58    0.41
  -6   6   3    1.31    0.66
  -6   6   3    0.26    0.53
   6  -6  -3    0.47    0.65
   6  -6  -3   -0.02    0.12
   6  -6  -3    0.62    0.47
   6  -6  -3   -0.45    0.39
   6  -6  -3    0.26    0.26
  -8   6   4    0.81    0.68
  -8   6   4    0.44    0.57
  -8   6   4   -0.34    1.21
  -8   6   4    0.03    0.50
  -8   6   4    1.77    0.82
   8  -6  -4    0.13    0.71
   8  -6  -4    0.78    0.84
   5   7  -3    4.57    1.38
   5   7  -3    3.48    1.25
   5   7  -3    2.82    1.13
  -5  -7   3    6.13    1.57
  -5  -7   3    5.75    1.48
   3   7  -2    3.51    1.12
   3   7  -2    2.98    0.90
   3   7  -2    3.04    0.94
   3   7  -2    1.55    0.75
  -3  -7   2    1.49    0.65
  -3  -7   2    2.18    0.95
  -3  -7   2    3.63    1.18
  -3  -7   2    3.51    1.15
   1   7  -1   12.58    1.22
   1   7  -1    9.55    1.07
   1   7  -1   12.95    1.42
   1   7  -1   11.16    1.30
   1   7  -1   12.06    0.79
  -1  -7   1   13.49    1.37
  -1  -7   1   12.51    0.81
  -1  -7   1   11.73    1.34
  -1  -7   1   14.65    1.45
  -1   7   0   20.96    1.52
  -1   7   0   20.51    1.46
  -1   7   0   21.75    1.49
  -1   7   0   20.06    1.52
  -1   7   0   20.06    1.70
  -1   7   0   20.29    1.45
   1  -7   0   19.84    1.55
   1  -7   0   20.42    1.71
   1  -7   0   18.28    1.49
   1  -7   0   19.26    1.70
  -3   7   1    1.91    0.65
  -3   7   1    1.36    0.62
  -3   7   1    1.22    0.43
  -3   7   1    2.08    0.48
  -3   7   1    2.58    0.72
   3  -7  -1    1.10    0.55
   3  -7  -1    2.02    0.44
   3  -7  -1    3.08    0.81
   3  -7  -1    1.98    0.41
  -5   7   2    9.62    1.58
  -5   7   2    7.88    1.10
  -5   7   2    6.82    0.82
   5  -7  -2    6.53    0.49
   5  -7  -2   11.05    1.66
   5  -7  -2    7.27    0.94
   5  -7  -2    7.49    0.81
  -7   7   3    3.85    0.91
  -7   7   3    5.42    1.40
  -7   7   3    5.78    1.33
  -7   7   3    3.51    0.90
   7  -7  -3    3.67    1.00
   7  -7  -3    3.42    0.43
   7  -7  -3    2.72    1.02
  -9   7   4    2.32    1.01
  -9   7   4   -2.24    1.13
  -9   7   4    1.20    0.95
   9  -7  -4    2.79    0.92
   4   8  -3    0.09    0.62
   4   8  -3    0.88    0.91
   4   8  -3    0.39    0.72
  -4  -8   3   -1.01    0.99
  -4  -8   3   -0.43    0.78
  -4  -8   3   -0.43    0.63
   2   8  -2    2.60    1.02
   2   8  -2    3.18    1.12
   2   8  -2    3.58    0.87
  -2  -8   2    2.56    1.00
  -2  -8   2    3.13    1.08
  -2  -8   2    2.06    1.03
   0   8  -1    3.48    0.58
   0   8  -1    3.02    0.82
   0   8  -1    3.80    0.77
   0   8  -1    3.12    0.90
   0  -8   1    4.51    0.93
   0  -8   1    4.34    0.75
   0  -8   1    2.24    0.74
   0  -8   1    4.50    1.10
  -2   8   0   -0.20    0.39
  -2   8   0   -0.18    0.53
  -2   8   0   -0.07    0.28
  -2   8   0    0.41    0.39
  -2   8   0    0.23    0.42
   2  -8   0   -0.50    0.39
   2  -8   0    0.74    0.58
   2  -8   0    0.54    0.46
   2  -8   0    0.16    0.47
  -4   8   1   32.13    2.44
  -4   8   1   32.08    2.37
  -4   8   1   33.95    2.07
  -4   8   1   32.33    2.04
   4  -8  -1   27.28    1.83
   4  -8  -1   32.25    2.41
   4  -8  -1   29.08    1.85
   4  -8  -1   32.55    2.40
   4  -8  -1   33.09    2.25
  -6   8   2    2.84    0.97
  -6   8   2    1.90    0.82
  -6   8   2    2.17    0.60
  -6   8   2    2.03    0.56
   6  -8  -2    1.83    0.98
   6  -8  -2    1.09    0.73
   6  -8  -2    1.22    0.50
   6  -8  -2    2.24    0.52
  -8   8   3    1.63    0.82
  -8   8   3    1.61    0.97
  -8   8   3    1.94    0.91
   8  -8  -3    0.54    0.94
   8  -8  -3    0.97    0.92
   3   9  -3   -0.19    0.68
   3   9  -3    1.28    0.93
   3   9  -3    0.48    1.05
  -3  -9   3    1.17    1.15
  -3  -9   3    0.50    1.06
  -3  -9   3   -0.01    0.70
   1   9  -2    4.54    0.97
   1   9  -2    3.16    0.99
   1   9  -2    3.16    0.89
   1   9  -2    5.33    1.25
  -1  -9   2    2.59    1.15
  -1  -9   2    4.31    1.23
  -1  -9   2    4.78    1.22
  -1   9  -1    9.03    0.98
  -1   9  -1    9.00    0.92
  -1   9  -1    7.24    0.91
  -1   9  -1    9.35    1.58
  -1   9  -1    9.05    0.97
   1  -9   1   11.88    1.47
   1  -9   1    8.78    1.10
   1  -9   1   10.73    1.70
   1  -9   1    8.01    0.98
  -3   9   0    4.55    0.95
  -3   9   0    3.46    0.97
  -3   9   0    2.43    1.03
  -3   9   0    5.07    0.82
   3  -9   0    4.06    1.03
   3  -9   0    3.78    0.70
   3  -9   0    4.04    1.27
   3  -9   0    4.99    1.11
   3  -9   0    3.23    0.79
  -5   9   1    0.82    0.56
  -5   9   1    1.44    0.50
  -5   9   1   -0.11    0.62
   5  -9  -1    0.86    0.81
   5  -9  -1    0.13    0.65
   5  -9  -1    0.86    0.47
  -7   9   2   -0.21    0.60
  -7   9   2   -1.64    0.63
  -7   9   2   -0.69    0.33
   7  -9  -2   -0.13    0.62
   7  -9  -2   -0.37    0.95
   7  -9  -2    0.75    0.38
   2  10  -3   -0.21    0.82
   2  10  -3    0.39    0.82
   2  10  -3    1.81    0.79
  -2 -10   3   -0.49    0.96
  -2 -10   3   -0.75    0.98
   0  10  -2    2.22    0.91
   0  10  -2    0.88    0.66
   0  10  -2    0.99    0.60
   0 -10   2    0.15    0.37
   0 -10   2    1.48    0.90
   0 -10   2    0.37    0.69
   0 -10   2    0.65    0.37
   0 -10   2    1.23    0.81
  -2  10  -1   -0.76    0.51
  -2  10  -1   -0.01    0.46
  -2  10  -1   -0.03    0.38
  -2  10  -1    1.26    0.58
  -2  10  -1   -0.62    0.41
   2 -10   1   -0.86    0.60
   2 -10   1    0.92    0.60
   2 -10   1    0.18    0.59
   2 -10   1   -0.39    0.55
  -4  10   0    0.13    0.50
  -4  10   0    0.44    0.68
  -4  10   0    1.66    0.78
  -4  10   0    0.23    0.41
   4 -10   0    0.18    0.48
   4 -10   0   -0.06    0.47
   4 -10   0    0.48    0.64
   4 -10   0    0.83    0.67
   4 -10   0    1.00    0.76
  -6  10   1    1.70    0.85
  -6  10   1    1.97    0.74
  -6  10   1    2.66    0.83
  -6  10   1    2.11    0.66
   6 -10  -1    2.25    1.01
   6 -10  -1    1.97    0.77
   6 -10  -1    1.98    0.47
   6 -10  -1    3.39    1.43
  -1  11  -2    0.48    0.75
  -1  11  -2    0.13    0.53
  -1  11  -2    0.01    0.64
   1 -11   2    0.26    0.64
   1 -11   2    0.27    0.61
   1 -11   2   -0.98    0.70
   1 -11   2    0.93    0.96
   1 -11   2    0.30    0.80
  -3  11  -1   -0.12    0.58
  -3  11  -1   -0.49    0.55
  -3  11  -1   -0.12    0.62
  -3  11  -1   -0.34    0.43
  -3  11  -1   -0.76    0.52
   3 -11   1    0.80    0.93
   3 -11   1    1.05    0.76
   3 -11   1   -0.79    0.60
   3 -11   1   -0.02    0.67
  -5  11   0    1.91    0.86
  -5  11   0    0.06    0.70
  -5  11   0    2.15    0.96
  -5  11   0    0.11    0.44
   5 -11   0    3.11    1.26
   5 -11   0    1.09    0.66
   5 -11   0    1.32    0.95
   5 -11   0   -0.46    0.59
  -4  12  -1    1.93    0.86
  -4  12  -1    1.45    0.89
   4 -12   1    1.15    0.74
   4 -12   1   -0.48    1.16
   5 -10   6    1.14    0.81
   5 -10   6    2.66    0.88
   5 -10   6    1.04    0.93
   5 -10   6    2.89    1.40
   5 -10   6    1.39    0.94
   5 -10   6    3.46    1.16
  -5  10  -6    1.58    0.44
  -5  10  -6    2.00    0.40
  -5  10  -6    1.81    0.87
   3 -10   7    9.81    1.68
   3 -10   7    8.27    1.74
   3 -10   7    7.25    1.42
   3 -10   7   11.14    1.38
   3 -10   7    8.52    1.60
   3 -10   7    9.21    1.60
  -3  10  -7    8.63    1.55
  -3  10  -7    8.96    1.63
  -3  10  -7    6.69    0.60
   1 -10   8   -0.27    0.61
   1 -10   8   -0.61    0.71
   1 -10   8    0.59    0.74
  -1  10  -8    1.12    0.78
  -1  10  -8   -0.23    0.82
  -1  10  -8    0.37    0.43
  -1  10  -8    1.15    0.66
   6  -9   5    0.19    0.81
   6  -9   5    1.20    0.58
   6  -9   5   -0.43    0.56
   6  -9   5   -0.37    0.57
  -6   9  -5    0.39    0.54
  -6   9  -5    1.57    1.07
  -6   9  -5    0.59    0.44
  -6   9  -5    0.33    0.72
   4  -9   6    0.90    0.66
   4  -9   6    0.59    0.72
   4  -9   6    0.40    0.59
   4  -9   6    0.29    0.52
   4  -9   6   -0.17    0.59
   4  -9   6   -0.57    0.58
  -4   9  -6    0.32    0.20
  -4   9  -6    0.34    0.22
  -4   9  -6    0.03    0.66
  -4   9  -6    0.51    0.60
   2  -9   7    1.76    0.95
   2  -9   7    1.01    0.66
   2  -9   7    0.76    0.74
   2  -9   7    1.27    0.85
   2  -9   7    1.12    0.86
   2  -9   7    1.64    0.79
  -2   9  -7    1.38    0.39
  -2   9  -7    1.44    0.73
  -2   9  -7    0.80    0.62
  -2   9  -7    0.79    0.63
  -2   9  -7    1.33    0.37
   0  -9   8    3.31    1.11
   0  -9   8    1.51    0.70
   0  -9   8    3.18    1.23
   0  -9   8    2.01    0.79
   0   9  -8    2.13    0.84
   0   9  -8    3.25    1.18
   0   9  -8    2.32    0.93
   0   9  -8    2.43    0.68
   7  -8   4    0.32    0.86
   7  -8   4   -0.18    0.49
   7  -8   4    0.08    0.39
   7  -8   4    0.59    0.72
   7  -8   4    0.04    0.77
  -7   8  -4    0.83    0.84
  -7   8  -4   -0.44    0.70
  -7   8  -4    1.36    0.90
   5  -8   5   12.88    1.52
   5  -8   5   13.36    1.34
   5  -8   5   13.60    1.23
   5  -8   5   12.64    1.47
   5  -8   5   11.33    1.31
  -5   8  -5   13.69    1.05
  -5   8  -5   12.39    1.49
  -5   8  -5   14.62    1.58
  -5   8  -5   11.41    0.95
  -5   8  -5   12.24    1.30
   3  -8   6    0.23    0.46
   3  -8   6    0.97    0.65
   3  -8   6    1.48    0.71
   3  -8   6    0.41    0.50
   3  -8   6    1.30    0.70
   3  -8   6    1.38    0.72
  -3   8  -6   -0.09    0.49
  -3   8  -6    0.49    0.22
  -3   8  -6    0.13    0.18
  -3   8  -6    0.13    0.64
  -3   8  -6    0.07    0.44
   1  -8   7    1.07    0.77
   1  -8   7    0.81    0.68
   1  -8   7    1.37    0.81
   1  -8   7    1.91    0.60
  -1   8  -7    2.32    0.88
  -1   8  -7    0.53    0.66
  -1   8  -7    2.44    0.53
  -1   8  -7    2.74    0.71
  -1  -8   8    1.92    0.84
  -1  -8   8    0.92    0.49
  -1  -8   8    1.35    0.58
  -1  -8   8    1.86    0.96
   1   8  -8    2.00    0.60
   1   8  -8    3.37    1.10
   1   8  -8    1.03    0.55
   1   8  -8    1.73    0.57
   1   8  -8    3.15    1.06
  -3  -8   9    1.39    1.09
   3   8  -9    0.67    0.67
   3   8  -9    1.09    0.90
   3   8  -9    2.40    1.05
   8  -7   3    1.08    0.75
   8  -7   3   -1.46    0.84
   8  -7   3    0.02    0.69
  -8   7  -3    0.12    0.55
  -8   7  -3   -0.55    0.89
   6  -7   4   -0.35    0.40
   6  -7   4    0.83    0.63
   6  -7   4    1.67    0.52
   6  -7   4    0.44    0.65
   6  -7   4    0.38    0.60
   6  -7   4    0.75    0.77
   6  -7   4    0.20    0.34
  -6   7  -4    0.57    0.64
  -6   7  -4    0.93    0.44
  -6   7  -4   -0.10    0.41
  -6   7  -4    1.54    0.72
   4  -7   5   -0.25    0.62
   4  -7   5    0.56    0.45
   4  -7   5    0.50    0.60
  -4   7  -5   -0.35    0.49
  -4   7  -5    0.46    0.44
  -4   7  -5    0.59    0.26
  -4   7  -5    0.61    0.45
   2  -7   6    5.35    0.92
   2  -7   6    5.68    1.06
   2  -7   6    4.32    1.02
   2  -7   6    5.69    1.12
  -2   7  -6    4.37    0.46
  -2   7  -6    5.69    1.18
  -2   7  -6    5.82    0.92
  -2   7  -6    5.05    0.96
  -2   7  -6    3.77    0.50
  -2   7  -6    6.68    1.27
   0  -7   7    0.66    0.44
   0  -7   7    0.07    0.45
   0  -7   7   -0.35    0.36
   0  -7   7   -0.64    0.41
   0  -7   7    0.08    0.54
   0   7  -7   -0.15    0.41
   0   7  -7    0.37    0.32
   0   7  -7   -0.30    0.34
   0   7  -7   -0.25    0.27
   0   7  -7   -0.36    0.31
  -2  -7   8    1.19    0.66
  -2  -7   8    0.75    0.39
  -2  -7   8    1.43    0.41
  -2  -7   8    2.27    0.89
  -2  -7   8    0.78    0.31
   2   7  -8    0.98    0.61
   2   7  -8    2.03    0.99
   2   7  -8    3.54    1.02
   2   7  -8    2.55    0.72
   2   7  -8    2.26    0.79
  -4  -7   9   -0.67    0.67
   4   7  -9   -0.55    0.66
   4   7  -9   -0.18    0.70
   9  -6   2    1.92    1.12
   9  -6   2   -0.36    0.88
   9  -6   2   -0.92    0.93
  -9   6  -2   -0.20    0.98
  -9   6  -2    0.48    0.84
   7  -6   3    0.51    0.88
   7  -6   3    0.02    0.26
   7  -6   3   -0.45    0.34
   7  -6   3    0.65    0.79
   7  -6   3    0.82    0.52
  -7   6  -3    1.56    0.49
  -7   6  -3    1.33    0.81
  -7   6  -3    0.44    0.56
  -7   6  -3    0.23    0.57
   5  -6   4    4.72    1.12
   5  -6   4    6.06    1.26
   5  -6   4    4.72    0.89
   5  -6   4    4.20    0.58
   5  -6   4    3.89    0.53
   5  -6   4    6.40    1.06
  -5   6  -4    5.91    0.95
  -5   6  -4    5.96    1.17
  -5   6  -4    4.55    0.73
  -5   6  -4    5.80    1.24
   3  -6   5   21.38    1.78
   3  -6   5   20.73    1.55
   3  -6   5   22.48    1.88
   3  -6   5   20.96    1.55
   3  -6   5   22.06    1.56
   3  -6   5   21.06    1.53
  -3   6  -5   21.29    1.70
  -3   6  -5   21.48    1.30
  -3   6  -5   21.73    1.79
  -3   6  -5   20.22    1.54
  -3   6  -5   19.79    1.26
   1  -6   6    6.98    1.29
   1  -6   6    6.22    0.95
   1  -6   6    6.38    0.85
  -1   6  -6    7.74    1.21
  -1   6  -6    6.12    0.74
  -1   6  -6    6.83    1.22
  -1   6  -6    6.16    0.61
  -1   6  -6    5.78    0.58
  -1   6  -6    7.14    1.29
  -1  -6   7    1.83    0.69
  -1  -6   7    2.24    0.50
  -1  -6   7    1.59    0.46
  -1  -6   7    1.87    0.76
  -1  -6   7    2.15    0.51
   1   6  -7    2.31    0.72
   1   6  -7    1.55    0.60
   1   6  -7    2.82    0.79
  -3  -6   8   -0.11    0.20
  -3  -6   8    0.25    0.25
  -3  -6   8    0.44    0.47
  -3  -6   8   -0.31    0.53
   3   6  -8    0.78    0.78
   3   6  -8    0.35    0.52
   3   6  -8    0.71    0.54
   3   6  -8    0.68    0.48
  -5  -6   9    0.69    1.14
   5   6  -9    2.11    1.11
   5   6  -9    1.76    0.92
   8  -5   2    0.66    0.74
   8  -5   2    0.47    0.80
   8  -5   2    0.08    0.54
  -8   5  -2    0.87    0.83
  -8   5  -2    0.22    0.89
   6  -5   3    4.56    1.18
   6  -5   3    4.67    0.35
   6  -5   3    4.12    1.13
   6  -5   3    6.80    1.15
   6  -5   3    5.36    0.75
   6  -5   3    4.50    0.37
  -6   5  -3    4.42    0.60
  -6   5  -3    4.68    1.04
  -6   5  -3    7.87    1.39
  -6   5  -3    5.40    1.20
  -6   5  -3    5.88    0.97
  -6   5  -3    5.59    0.97
   4  -5   4    2.13    0.56
   4  -5   4    2.79    0.76
   4  -5   4    1.99    0.66
   4  -5   4    2.59    0.60
   4  -5   4    3.91    0.74
   4  -5   4    3.10    0.40
   4  -5   4    2.99    0.50
  -4   5  -4    2.97    0.64
  -4   5  -4    4.08    0.88
  -4   5  -4    2.92    0.49
  -4   5  -4    2.53    0.75
   2  -5   5    0.45    0.31
   2  -5   5    0.91    0.47
   2  -5   5    0.23    0.30
   2  -5   5    0.93    0.43
   2  -5   5    0.82    0.44
  -2   5  -5    0.81    0.23
  -2   5  -5    1.24    0.30
  -2   5  -5    0.77    0.37
  -2   5  -5    0.98    0.39
  -2   5  -5    0.57    0.47
   0  -5   6    6.48    0.84
   0  -5   6    6.27    0.80
   0  -5   6    6.46    0.80
   0  -5   6    7.50    0.94
   0  -5   6    6.38    0.71
   0   5  -6    6.12    0.62
   0   5  -6    6.89    0.93
   0   5  -6    6.97    0.94
   0   5  -6    6.28    0.71
   0   5  -6    6.43    0.81
   0   5  -6    6.77    0.69
  -2  -5   7    4.85    0.63
  -2  -5   7    3.66    0.84
  -2  -5   7    6.42    1.24
  -2  -5   7    4.59    0.56
  -2  -5   7    4.78    0.60
   2   5  -7    6.61    1.25
   2   5  -7    5.14    0.91
   2   5  -7    4.54    0.93
   2   5  -7    4.62    0.73
   2   5  -7    5.22    1.06
   2   5  -7    5.20    0.68
   2   5  -7    4.30    0.70
  -4  -5   8    1.06    0.61
  -4  -5   8    0.90    0.76
  -4  -5   8    0.12    0.22
  -4  -5   8    0.28    0.36
   4   5  -8   -0.39    0.62
   4   5  -8    0.59    0.65
   4   5  -8   -0.10    0.37
   4   5  -8    0.16    0.47
   4   5  -8    0.44    0.52
  -6  -5   9    0.81    1.14
  -6  -5   9    0.63    1.24
   6   5  -9    0.79    1.01
   6   5  -9    5.54    1.37
   6   5  -9    1.11    0.96
   9  -4   1    0.93    0.99
   9  -4   1    1.01    0.79
   9  -4   1    0.18    0.68
  -9   4  -1    2.55    1.31
  -9   4  -1    2.18    1.01
   7  -4   2    1.08    0.70
   7  -4   2    1.75    0.88
   7  -4   2    3.12    0.99
  -7   4  -2    3.56    1.00
  -7   4  -2    2.28    0.94
  -7   4  -2    3.54    0.99
   5  -4   3    3.63    0.94
   5  -4   3    2.45    0.36
   5  -4   3    2.39    0.56
  -5   4  -3    2.91    0.80
  -5   4  -3    2.63    0.56
  -5   4  -3    2.55    0.55
   3  -4   4    3.88    0.43
   3  -4   4    4.49    0.54
   3  -4   4    5.26    0.93
   3  -4   4    3.28    0.48
   3  -4   4    4.50    0.90
   3  -4   4    3.83    0.44
  -3   4  -4    3.41    0.44
  -3   4  -4    4.92    0.82
  -3   4  -4    5.49    1.12
  -3   4  -4    3.66    0.44
  -3   4  -4    4.10    0.82
  -3   4  -4    3.43    0.42
   1  -4   5   21.40    1.49
   1  -4   5   23.05    1.60
   1  -4   5   21.61    1.52
   1  -4   5   22.37    1.35
   1  -4   5   20.03    1.57
   1  -4   5   20.94    1.57
  -1   4  -5   22.27    1.63
  -1   4  -5   20.66    1.49
  -1   4  -5   16.98    1.29
  -1   4  -5   22.13    1.30
  -1   4  -5   20.76    1.33
  -1   4  -5   21.81    1.61
  -1  -4   6   16.52    1.14
  -1  -4   6   13.26    1.07
  -1  -4   6   14.35    1.33
  -1  -4   6   13.36    1.11
   1   4  -6   14.56    1.37
   1   4  -6   13.65    1.10
   1   4  -6   13.81    1.09
   1   4  -6   12.42    1.08
   1   4  -6   14.44    1.32
   1   4  -6   15.92    1.19
  -3  -4   7   11.56    0.91
  -3  -4   7   12.65    0.98
  -3  -4   7    9.39    1.29
  -3  -4   7    9.94    1.01
   3   4  -7   12.02    1.34
   3   4  -7    9.05    0.85
   3   4  -7   11.93    1.18
   3   4  -7   12.13    1.37
   3   4  -7   11.82    0.94
   3   4  -7   11.45    1.20
   3   4  -7    9.25    1.05
  -5  -4   8   -0.10    0.27
  -5  -4   8   -1.17    0.46
  -5  -4   8   -0.81    0.64
  -5  -4   8    0.02    0.32
   5   4  -8    0.62    0.62
   5   4  -8    0.27    0.38
   5   4  -8   -0.51    0.52
   5   4  -8    0.02    0.82
   8  -3   1    0.39    0.72
   8  -3   1    0.31    0.79
   8  -3   1    1.88    0.83
  -8   3  -1    0.20    0.69
  -8   3  -1    0.34    0.74
   6  -3   2    5.39    1.06
   6  -3   2    5.68    0.97
   6  -3   2    3.61    0.67
   6  -3   2    5.62    1.14
   6  -3   2    3.37    0.46
  -6   3  -2    2.81    0.53
  -6   3  -2    3.00    0.81
  -6   3  -2    5.15    1.03
  -6   3  -2    3.59    0.81
   4  -3   3    2.37    0.48
   4  -3   3    3.62    0.41
   4  -3   3    2.40    0.62
   4  -3   3    2.35    0.45
   4  -3   3    2.70    0.70
  -4   3  -3    3.60    0.48
  -4   3  -3    4.83    0.72
  -4   3  -3    3.46    0.84
  -4   3  -3    3.22    0.76
  -4   3  -3    4.16    0.66
   2  -3   4   16.44    1.22
   2  -3   4   15.33    1.27
   2  -3   4   17.53    1.40
   2  -3   4   17.76    1.35
   2  -3   4   16.29    1.05
   2  -3   4   16.37    1.07
   2  -3   4   16.31    1.03
   2  -3   4   16.69    1.31
  -2   3  -4   17.25    1.08
  -2   3  -4   16.79    1.32
  -2   3  -4   15.44    1.23
  -2   3  -4   15.78    1.34
  -2   3  -4   16.74    1.10
   0  -3   5    0.23    0.23
   0  -3   5    0.25    0.33
   0  -3   5    0.32    0.29
   0  -3   5    0.16    0.12
   0  -3   5    0.58    0.25
   0  -3   5    0.64    0.33
   0  -3   5    0.38    0.20
   0  -3   5    0.39    0.36
   0  -3   5    0.66    0.34
   0   3  -5    0.16    0.18
   0   3  -5    0.35    0.19
   0   3  -5    0.82    0.34
   0   3  -5    0.55    0.28
   0   3  -5    0.99    0.39
   0   3  -5    0.80    0.36
   0   3  -5    0.67    0.37
  -2  -3   6    3.67    0.55
  -2  -3   6    5.43    0.99
  -2  -3   6    5.07    0.57
  -2  -3   6    4.53    0.57
   2   3  -6    5.50    0.97
   2   3  -6    4.05    0.49
   2   3  -6    5.10    0.71
   2   3  -6    4.38    0.75
   2   3  -6    2.99    0.61
   2   3  -6    5.38    0.83
   2   3  -6    3.61    0.52
  -4  -3   7    2.77    0.59
  -4  -3   7    2.45    0.65
  -4  -3   7    1.45    0.63
  -4  -3   7    2.32    0.55
  -4  -3   7    2.59    0.83
   4   3  -7    1.11    0.58
   4   3  -7    1.95    0.76
   4   3  -7    3.01    0.73
   4   3  -7    3.18    0.87
   4   3  -7    2.11    0.85
   4   3  -7    1.98    0.55
  -6  -3   8    0.01    0.60
  -6  -3   8   -0.16    0.44
  -6  -3   8    0.86    0.71
  -6  -3   8    0.12    0.55
  -6  -3   8   -0.06    0.40
   6   3  -8   -0.09    0.60
   6   3  -8   -0.47    0.58
   6   3  -8   -0.08    0.52
   9  -2   0    1.01    0.96
   9  -2   0    0.61    0.77
   9  -2   0   -0.13    0.71
  -9   2   0   -0.68    0.66
  -9   2   0    2.59    0.89
  -9   2   0    0.23    1.12
   7  -2   1    2.29    0.86
   7  -2   1    3.56    0.95
   7  -2   1    4.19    0.86
   7  -2   1    1.95    0.83
  -7   2  -1    3.41    1.07
  -7   2  -1    4.15    0.99
  -7   2  -1    3.28    1.01
  -7   2  -1    3.30    0.48
   5  -2   2    0.38    0.27
   5  -2   2    0.02    0.36
   5  -2   2    0.29    0.39
   5  -2   2    0.82    0.37
   5  -2   2    0.27    0.45
  -5   2  -2    0.27    0.26
  -5   2  -2   -0.04    0.39
  -5   2  -2    0.16    0.35
  -5   2  -2   -0.09    0.33
   3  -2   3    6.28    0.73
   3  -2   3    5.21    0.71
   3  -2   3    6.39    0.81
   3  -2   3    5.02    0.59
   3  -2   3    5.54    0.54
   3  -2   3    6.16    0.72
   3  -2   3    5.67    0.58
  -3   2  -3    4.89    0.55
  -3   2  -3    4.89    0.51
  -3   2  -3    5.33    0.59
  -3   2  -3    5.18    0.67
  -3   2  -3    5.66    0.63
  -3   2  -3    5.13    0.68
   1  -2   4  127.89    6.52
   1  -2   4  121.45    6.54
   1  -2   4  129.05    6.13
   1  -2   4  123.98    6.21
   1  -2   4  122.32    6.47
   1  -2   4  128.86    6.50
   1  -2   4  132.06    6.13
   1  -2   4  127.42    6.31
   1  -2   4  127.28    6.22
  -1   2  -4  117.68    6.49
  -1   2  -4  121.56    6.51
  -1   2  -4  115.71    6.29
  -1   2  -4  107.69    6.26
  -1   2  -4  123.21    6.48
  -1   2  -4  124.90    6.33
  -3  -2   6    0.46    0.34
  -3  -2   6    0.95    0.34
  -3  -2   6    0.91    0.38
  -3  -2   6    0.77    0.36
  -3  -2   6    0.24    0.35
   3   2  -6    1.03    0.36
   3   2  -6    0.88    0.48
   3   2  -6    0.57    0.35
   3   2  -6    1.10    0.50
   3   2  -6    0.91    0.43
  -5  -2   7    3.64    0.90
  -5  -2   7    4.25    0.74
  -5  -2   7    4.22    0.80
  -5  -2   7    3.57    0.92
  -5  -2   7    4.26    1.11
   5   2  -7    4.02    0.81
   5   2  -7    4.22    1.10
   5   2  -7    4.74    1.04
   5   2  -7    5.39    1.07
   5   2  -7    3.47    0.89
  -7  -2   8    1.11    0.58
  -7  -2   8    1.05    0.71
  -7  -2   8   -0.44    0.53
  -7  -2   8    1.28    0.77
  -7  -2   8    0.42    0.74
   7   2  -8    0.97    0.83
   7   2  -8    0.19    0.51
   7   2  -8    0.88    0.71
   8  -1   0   -0.06    0.59
   8  -1   0    0.61    0.71
   8  -1   0   -0.04    0.60
   8  -1   0   -0.13    0.33
   8  -1   0    0.21    0.70
  -8   1   0   -0.16    0.41
  -8   1   0    1.24    0.90
  -8   1   0    0.17    0.64
   6  -1   1    0.87    0.56
   6  -1   1    0.88    0.23
   6  -1   1    1.09    0.54
   6  -1   1    0.99    0.47
   6  -1   1   -0.16    0.30
   6  -1   1    0.70    0.55
  -6   1  -1    0.39    0.42
  -6   1  -1   -0.12    0.57
  -6   1  -1   -0.17    0.29
  -6   1  -1   -0.02    0.43
   4  -1   2    1.75    0.54
   4  -1   2    2.37    0.56
   4  -1   2    1.99    0.60
   4  -1   2    1.40    0.38
   4  -1   2    1.55    0.56
   4  -1   2    2.41    0.59
  -4   1  -2    3.00    0.65
  -4   1  -2    1.99    0.51
  -4   1  -2    2.30    0.64
  -4   1  -2    2.35    0.58
  -4   1  -2    2.39    0.49
  -4   1  -2    2.17    0.72
   2  -1   3    3.83    0.44
   2  -1   3    3.77    0.26
   2  -1   3    4.09    0.67
   2  -1   3    3.32    0.50
   2  -1   3    4.25    0.57
   2  -1   3    3.83    0.47
   2  -1   3    4.45    0.47
   2  -1   3    3.42    0.37
   2  -1   3    3.66    0.50
  -2   1  -3    4.28    0.39
  -2   1  -3    3.77    0.25
  -2   1  -3    3.87    0.54
  -2   1  -3    3.87    0.48
  -2   1  -3    3.71    0.52
   0  -1   4   14.74    0.98
   0  -1   4   14.28    0.99
   0  -1   4   13.73    1.04
   0  -1   4   13.93    1.07
   0  -1   4   13.44    1.08
   0  -1   4   14.63    0.76
   0  -1   4   15.41    1.07
   0  -1   4   16.37    0.99
   0   1  -4   13.81    1.07
   0   1  -4   13.98    1.04
   0   1  -4   14.54    1.00
   0   1  -4   14.49    1.04
   0   1  -4   14.98    1.08
   0   1  -4   14.72    0.76
   0   1  -4   14.51    1.01
  -2  -1   5   13.60    1.09
  -2  -1   5   13.71    1.05
  -2  -1   5   14.42    1.11
  -2  -1   5   13.09    1.06
  -2  -1   5   14.29    1.00
  -2  -1   5   14.24    1.12
  -2  -1   5   13.71    1.12
  -2  -1   5   13.47    1.07
  -2  -1   5   15.37    1.18
   2   1  -5   13.70    1.06
   2   1  -5   12.84    1.12
   2   1  -5   14.08    1.13
   2   1  -5   15.77    1.06
   2   1  -5   15.45    1.18
   2   1  -5   13.00    1.01
   2   1  -5   13.48    1.14
   2   1  -5   14.17    1.10
  -4  -1   6    3.05    0.61
  -4  -1   6    2.49    0.67
  -4  -1   6    2.39    0.61
  -4  -1   6    2.55    0.57
  -4  -1   6    2.62    0.59
   4   1  -6    2.99    0.77
   4   1  -6    2.62    0.64
   4   1  -6    2.64    0.73
   4   1  -6    2.97    0.69
   4   1  -6    2.37    0.64
   4   1  -6    3.91    0.87
  -6  -1   7   19.86    1.69
  -6  -1   7   21.01    1.60
  -6  -1   7   18.74    1.61
  -6  -1   7   19.93    1.80
  -6  -1   7   18.36    1.77
   6   1  -7   19.67    1.63
   6   1  -7   20.59    1.92
   6   1  -7   18.85    1.82
   6   1  -7   18.40    1.77
  -8  -1   8    0.43    0.81
  -8  -1   8   -0.45    0.88
  -8  -1   8    0.50    0.71
  -8  -1   8    0.54    0.66
   8   1  -8   -0.17    0.52
   8   1  -8   -1.29    0.78
   8   1  -8   -1.78    0.78
   7   0   0    3.37    1.09
   7   0   0    3.40    0.85
   7   0   0    3.67    0.65
   7   0   0    4.52    1.02
   7   0   0    2.64    0.71
  -7   0   0    3.79    1.08
  -7   0   0    2.80    0.64
  -7   0   0    2.08    0.67
  -7   0   0    4.66    1.10
   5   0   1    0.81    0.28
   5   0   1    1.06    0.49
   5   0   1    0.90    0.39
   5   0   1    1.15    0.48
   5   0   1    1.06    0.57
  -5   0  -1    0.76    0.52
  -5   0  -1    1.43    0.63
  -5   0  -1    1.17    0.44
  -5   0  -1    0.44    0.26
  -5   0  -1    0.75    0.58
   3   0   2   10.72    0.96
   3   0   2    9.63    0.89
   3   0   2   10.38    0.97
   3   0   2   10.51    0.90
   3   0   2    9.66    0.86
   3   0   2    9.52    0.90
   3   0   2    9.83    0.84
   3   0   2   10.34    0.89
  -3   0  -2   10.38    0.84
  -3   0  -2   10.04    1.00
  -3   0  -2    9.75    0.88
  -3   0  -2    9.63    0.93
  -3   0  -2    9.06    0.88
  -3   0  -2   10.23    0.63
  -3   0  -2    9.14    0.83
  -3   0  -2   10.10    0.62
   1   0   3   26.70    1.59
   1   0   3   25.72    1.69
   1   0   3   26.12    1.42
   1   0   3   28.20    1.61
   1   0   3   26.57    1.64
   1   0   3   22.03    1.48
   1   0   3   26.93    1.62
   1   0   3   26.50    1.63
  -1   0  -3   25.57    1.65
  -1   0  -3   26.64    1.46
  -1   0  -3   25.76    1.62
  -1   0  -3   26.57    1.63
  -1   0  -3   25.77    1.59
  -1   0  -3   25.82    1.64
  -1   0  -3   27.12    1.43
  -1   0  -3   25.57    1.60
  -1   0   4   20.91    1.39
  -1   0   4   21.26    1.39
  -1   0   4   20.58    1.37
  -1   0   4   20.45    1.34
  -1   0   4   20.14    1.35
  -1   0   4   22.47    1.46
  -1   0   4   21.14    1.39
   1   0  -4   22.75    1.24
   1   0  -4   22.19    1.44
   1   0  -4   21.64    1.39
   1   0  -4   22.62    1.41
   1   0  -4   21.26    1.40
   1   0  -4   20.94    1.40
   1   0  -4   20.91    1.34
   1   0  -4   22.37    1.39
  -3   0   5   45.56    2.67
  -3   0   5   44.40    2.65
  -3   0   5   45.02    2.73
  -3   0   5   44.59    2.76
  -3   0   5   47.22    2.80
  -3   0   5   45.88    2.69
  -3   0   5   43.59    2.63
  -3   0   5   45.59    2.75
  -3   0   5   43.40    2.65
   3   0  -5   47.00    2.81
   3   0  -5   44.83    2.67
   3   0  -5   42.80    2.66
   3   0  -5   48.18    2.72
   3   0  -5   44.86    2.71
   3   0  -5   47.71    2.81
   3   0  -5   46.80    2.76
  -5   0   6    1.80    0.62
  -5   0   6    1.29    0.49
  -5   0   6    1.96    0.55
  -5   0   6    3.14    0.72
  -5   0   6    2.23    0.62
   5   0  -6    2.84    0.81
   5   0  -6    2.34    0.59
   5   0  -6    1.84    0.63
   5   0  -6    3.17    0.85
   5   0  -6    1.83    0.63
   5   0  -6    1.78    0.70
  -7   0   7    6.67    1.49
  -7   0   7    8.98    1.13
  -7   0   7    9.67    1.19
  -7   0   7    9.08    1.04
  -7   0   7   11.32    1.30
   7   0  -7    5.99    1.33
   8   1  -1   -0.82    0.44
   8   1  -1   -0.48    0.79
   8   1  -1    0.08    0.62
   8   1  -1    0.00    0.63
   8   1  -1    0.66    0.91
  -8  -1   1    0.53    0.84
  -8  -1   1    0.69    0.83
  -8  -1   1   -0.78    0.56
   6   1   0    2.50    0.60
   6   1   0    2.08    0.64
   6   1   0    1.51    0.64
   6   1   0    3.02    0.77
   6   1   0    2.15    0.80
  -6  -1   0    1.57    0.56
  -6  -1   0    2.80    0.81
  -6  -1   0    1.56    0.72
   4   1   1    2.67    0.61
   4   1   1    2.69    0.59
   4   1   1    1.85    0.58
   4   1   1    2.06    0.43
   4   1   1    1.99    0.57
   4   1   1    1.86    0.51
   4   1   1    2.14    0.70
   4   1   1    1.98    0.58
  -4  -1  -1    1.78    0.41
  -4  -1  -1    1.63    0.47
  -4  -1  -1    2.00    0.64
  -4  -1  -1    1.69    0.52
  -4  -1  -1    2.22    0.75
   2   1   2    8.67    0.73
   2   1   2    8.52    0.76
   2   1   2    7.43    0.75
   2   1   2   10.21    0.83
   2   1   2    8.07    0.78
   2   1   2   11.66    0.90
   2   1   2   10.15    0.77
  -2  -1  -2    7.89    0.77
  -2  -1  -2    8.40    0.64
  -2  -1  -2    8.06    0.76
  -2  -1  -2    8.74    0.86
   0   1   3  489.39   24.52
   0   1   3  506.83   24.69
   0   1   3  508.12   24.68
   0  -1  -3  508.60   24.72
   0  -1  -3  500.35   24.68
   0  -1  -3  488.58   24.71
   0  -1  -3  492.32   24.67
  -2   1   4   25.64    1.69
  -2   1   4   26.04    1.67
  -2   1   4   27.58    1.59
  -2   1   4   25.61    1.66
  -2   1   4   24.96    1.59
  -2   1   4   27.18    1.54
  -2   1   4   26.39    1.71
  -2   1   4   26.76    1.53
   2  -1  -4   25.43    1.65
   2  -1  -4   26.66    1.70
   2  -1  -4   24.37    1.64
   2  -1  -4   25.22    1.69
   2  -1  -4   23.96    1.59
   2  -1  -4   26.86    1.60
   2  -1  -4   27.24    1.72
  -4   1   5    2.03    0.61
  -4   1   5    3.09    0.57
  -4   1   5    2.89    0.66
  -4   1   5    3.40    0.47
  -4   1   5    3.07    0.64
  -4   1   5    1.85    0.53
  -4   1   5    3.14    0.69
   4  -1  -5    2.95    0.64
   4  -1  -5    2.77    0.66
   4  -1  -5    3.17    0.63
   4  -1  -5    2.61    0.56
   4  -1  -5    2.44    0.60
  -6   1   6    6.57    1.10
  -6   1   6    6.13    1.14
  -6   1   6    6.34    0.91
  -6   1   6    4.24    0.64
  -6   1   6    6.17    1.20
  -6   1   6    5.13    0.97
   6  -1  -6    4.81    0.83
   6  -1  -6    5.07    1.07
   6  -1  -6    6.10    1.22
   6  -1  -6    6.68    1.23
  -8   1   7   -0.51    0.56
  -8   1   7    0.83    0.76
  -8   1   7    1.03    0.82
  -8   1   7    1.17    0.76
  -8   1   7   -1.22    0.75
   8  -1  -7    0.68    0.80
   8  -1  -7    0.63    0.74
   8  -1  -7    0.83    0.76
   7   2  -1    0.06    0.77
   7   2  -1    0.17    0.53
   7   2  -1    0.71    0.55
   7   2  -1    1.58    0.60
   7   2  -1    1.08    0.71
  -7  -2   1    0.61    0.56
  -7  -2   1    1.58    0.81
  -7  -2   1    0.39    0.69
   5   2   0    3.61    0.67
   5   2   0    4.54    0.99
   5   2   0    2.57    0.67
   5   2   0    3.08    0.67
   5   2   0    4.03    0.95
  -5  -2   0    2.61    0.79
  -5  -2   0    2.72    0.70
  -5  -2   0    2.76    0.65
  -5  -2   0    2.65    0.73
   3   2   1    7.06    0.76
   3   2   1    6.63    0.64
   3   2   1    6.59    0.66
   3   2   1    6.93    0.82
   3   2   1    6.56    0.80
   3   2   1    7.04    0.82
   3   2   1    7.65    0.70
   3   2   1    7.10    0.68
   3   2   1    7.23    0.69
  -3  -2  -1    6.76    0.72
  -3  -2  -1    6.94    0.79
  -3  -2  -1    7.58    0.70
  -3  -2  -1    6.49    0.82
  -3  -2  -1    7.08    0.80
  -3  -2  -1    7.21    0.72
   1   2   2   31.91    2.03
   1   2   2   34.61    1.95
   1   2   2   31.27    1.96
   1   2   2   34.70    2.03
   1   2   2   32.51    2.03
   1   2   2   32.96    1.94
   1   2   2   34.98    2.00
   1   2   2   32.81    2.04
  -1  -2  -2   33.99    1.96
  -1  -2  -2   31.88    1.97
  -1  -2  -2   32.55    2.01
  -1  -2  -2   33.20    1.97
  -1  -2  -2   33.83    2.05
  -1  -2  -2   33.65    2.04
  -1  -2  -2   32.25    1.93
  -1  -2  -2   36.65    2.11
  -1   2   3    5.82    0.42
  -1   2   3    5.23    0.56
  -1   2   3    5.01    0.61
  -1   2   3    5.40    0.55
  -1   2   3    5.86    0.59
  -1   2   3    4.74    0.51
  -1   2   3    5.41    0.57
  -1   2   3    5.21    0.54
   1  -2  -3    5.83    0.58
   1  -2  -3    5.62    0.56
   1  -2  -3    5.00    0.54
   1  -2  -3    5.38    0.50
   1  -2  -3    6.13    0.57
   1  -2  -3    5.80    0.63
   1  -2  -3    4.51    0.51
   1  -2  -3    5.18    0.51
   1  -2  -3    5.64    0.43
  -3   2   4    6.36    0.50
  -3   2   4    6.16    0.69
  -3   2   4    6.51    0.81
  -3   2   4    5.68    0.65
  -3   2   4    5.35    0.72
  -3   2   4    6.10    0.64
  -3   2   4    5.98    0.57
  -3   2   4    6.74    0.72
   3  -2  -4    6.62    0.72
   3  -2  -4    5.84    0.50
   3  -2  -4    5.83    0.66
   3  -2  -4    5.68    0.67
   3  -2  -4    7.60    0.63
   3  -2  -4    6.66    0.70
  -5   2   5   -0.08    0.25
  -5   2   5    0.21    0.24
  -5   2   5    0.16    0.29
  -5   2   5    0.33    0.40
  -5   2   5    0.38    0.42
  -5   2   5   -0.17    0.40
   5  -2  -5    0.04    0.28
   5  -2  -5    0.15    0.32
   5  -2  -5    0.03    0.22
   5  -2  -5   -0.29    0.38
   5  -2  -5    1.87    0.63
  -7   2   6    8.02    0.98
  -7   2   6    8.05    1.38
  -7   2   6    8.27    0.76
  -7   2   6    7.21    0.76
  -7   2   6    8.82    1.26
  -7   2   6    7.33    1.00
   7  -2  -6    9.78    1.18
   7  -2  -6    7.73    1.11
  -9   2   7    0.03    0.90
  -9   2   7    0.50    0.88
  -9   2   7    1.66    0.91
   9  -2  -7   -0.19    0.82
   6   3  -1    2.62    0.70
   6   3  -1    1.50    0.45
   6   3  -1    4.28    1.21
   6   3  -1    0.92    0.60
   6   3  -1    1.56    0.52
   6   3  -1    2.40    0.82
  -6  -3   1    2.68    0.99
  -6  -3   1    2.09    0.89
  -6  -3   1    1.79    0.75
   4   3   0    3.59    0.58
   4   3   0    3.24    0.57
   4   3   0    2.93    0.71
   4   3   0    3.38    0.58
   4   3   0    3.97    0.93
   4   3   0    4.55    0.99
   4   3   0    3.14    0.44
  -4  -3   0    3.82    0.92
  -4  -3   0    3.01    0.68
  -4  -3   0    3.35    0.82
  -4  -3   0    4.66    0.99
   2   3   1   11.84    1.00
   2   3   1   11.95    1.08
   2   3   1   12.34    1.11
  -2  -3  -1   15.14    1.12
  -2  -3  -1   10.52    0.99
  -2  -3  -1   14.13    1.08
  -2  -3  -1    9.82    0.94
   0   3   2   12.68    1.02
   0   3   2   12.08    0.98
   0   3   2   13.42    1.00
   0   3   2   13.52    0.92
   0   3   2   13.33    1.00
   0   3   2   13.11    1.02
   0   3   2   12.03    0.95
   0   3   2   12.64    0.93
   0  -3  -2   13.69    0.95
   0  -3  -2   13.34    1.01
   0  -3  -2   12.48    0.92
   0  -3  -2   12.32    1.04
   0  -3  -2   12.54    0.97
   0  -3  -2   12.85    0.95
   0  -3  -2   13.42    1.00
   0  -3  -2   13.91    1.04
   0  -3  -2   12.18    0.99
  -2   3   3    1.02    0.39
  -2   3   3    0.61    0.26
  -2   3   3    0.71    0.31
  -2   3   3    0.55    0.31
  -2   3   3    1.06    0.37
  -2   3   3    0.88    0.30
   2  -3  -3    1.00    0.38
   2  -3  -3    0.96    0.42
   2  -3  -3    0.81    0.37
   2  -3  -3    0.93    0.41
   2  -3  -3    0.82    0.30
   2  -3  -3    0.37    0.23
   2  -3  -3    0.81    0.33
  -4   3   4    1.82    0.53
  -4   3   4    1.91    0.56
  -4   3   4    2.51    0.65
  -4   3   4    2.00    0.56
  -4   3   4    2.20    0.41
   4  -3  -4    1.75    0.48
   4  -3  -4    1.63    0.45
   4  -3  -4    2.35    0.33
   4  -3  -4    2.06    0.53
   4  -3  -4    1.24    0.32
   4  -3  -4    1.53    0.53
  -6   3   5   37.57    2.10
  -6   3   5   36.69    2.73
  -6   3   5   39.68    2.72
  -6   3   5   38.28    2.69
  -6   3   5   40.36    2.98
  -6   3   5   38.97    2.38
   6  -3  -5   39.04    2.76
   6  -3  -5   37.23    2.34
   6  -3  -5   37.66    2.63
   6  -3  -5   37.29    2.35
   6  -3  -5   34.93    2.56
  -8   3   6    2.50    0.87
  -8   3   6    1.23    0.74
  -8   3   6    2.86    0.96
  -8   3   6    1.58    0.89
   8  -3  -6    2.34    1.12
   8  -3  -6    2.68    1.06
   7   4  -2   -0.62    0.90
   7   4  -2    0.54    1.00
   7   4  -2    0.51    0.63
  -7  -4   2    0.52    0.67
  -7  -4   2    0.21    0.97
   5   4  -1    0.52    0.30
   5   4  -1    0.56    0.46
   5   4  -1    0.95    0.37
   5   4  -1    0.14    0.24
   5   4  -1    0.93    0.33
   5   4  -1    0.54    0.48
   5   4  -1    1.17    0.60
  -5  -4   1    1.10    0.77
  -5  -4   1    2.68    0.77
  -5  -4   1    0.58    0.54
   3   4   0    6.37    0.59
   3   4   0    6.66    0.57
   3   4   0    6.39    0.54
   3   4   0    6.90    0.94
   3   4   0    6.06    0.55
   3   4   0    7.64    1.24
   3   4   0    6.01    0.83
   3   4   0    7.30    0.88
  -3  -4   0    6.33    0.86
  -3  -4   0    6.88    0.83
  -3  -4   0    7.42    1.25
   1   4   1   16.82    1.14
   1   4   1   15.61    1.26
   1   4   1   17.54    1.30
   1   4   1   18.96    1.41
   1   4   1   16.95    1.11
   1   4   1   17.11    1.34
   1   4   1   16.99    1.37
  -1  -4  -1   16.11    1.31
  -1  -4  -1   19.10    1.45
  -1  -4  -1   16.01    1.12
  -1  -4  -1   17.84    1.27
  -1  -4  -1   16.49    1.31
  -1  -4  -1   15.72    1.31
  -1  -4  -1   16.13    1.32
  -1  -4  -1   16.32    1.24
  -1   4   2    1.30    0.40
  -1   4   2    0.98    0.23
  -1   4   2    1.08    0.43
  -1   4   2    0.50    0.27
  -1   4   2    0.77    0.35
  -1   4   2    0.49    0.28
   1  -4  -2    0.88    0.42
   1  -4  -2    0.95    0.26
   1  -4  -2    1.47    0.37
   1  -4  -2    0.51    0.34
   1  -4  -2    0.63    0.37
   1  -4  -2    0.91    0.37
  -3   4   3  136.63    7.74
  -3   4   3  150.69    7.87
  -3   4   3  141.33    7.90
  -3   4   3  141.24    7.80
  -3   4   3  151.67    7.75
  -3   4   3  146.08    7.63
   3  -4  -3  152.59    7.86
   3  -4  -3  150.36    7.93
   3  -4  -3  169.48    7.93
   3  -4  -3  153.92    7.83
   3  -4  -3  146.12    7.66
   3  -4  -3  153.67    7.66
   3  -4  -3  138.27    7.61
  -5   4   4    6.03    1.03
  -5   4   4    4.64    0.47
  -5   4   4    4.24    0.94
  -5   4   4    4.58    0.85
   5  -4  -4    4.60    0.46
   5  -4  -4    6.42    0.88
   5  -4  -4    3.86    0.43
   5  -4  -4    5.77    0.69
   5  -4  -4    6.08    1.06
  -7   4   5    5.11    1.17
  -7   4   5    5.52    0.73
  -7   4   5    5.43    1.19
  -7   4   5    5.93    1.28
  -7   4   5    6.07    1.18
   7  -4  -5    6.31    1.15
   7  -4  -5    7.45    1.33
  -9   4   6    0.29    0.80
  -9   4   6    0.16    0.70
  -9   4   6   -0.34    0.85
  -9   4   6    0.91    1.16
   9  -4  -6    0.04    0.71
   9  -4  -6   -0.79    0.87
   6   5  -2   -0.32    0.63
   6   5  -2    0.15    0.62
  -6  -5   2    0.80    0.84
  -6  -5   2    1.05    1.05
   4   5  -1   -0.77    0.53
   4   5  -1    0.26    0.57
   4   5  -1   -0.01    0.62
   4   5  -1    0.41    0.54
  -4  -5   1   -0.10    0.61
  -4  -5   1    0.13    0.51
  -4  -5   1    0.23    0.56
   2   5   0   12.46    0.84
   2   5   0   12.78    1.26
   2   5   0   12.56    1.22
   2   5   0   13.81    1.29
  -2  -5   0   12.40    1.21
  -2  -5   0   15.19    0.89
  -2  -5   0   12.59    1.32
  -2  -5   0   13.64    1.20
  -2  -5   0   11.36    1.23
   0   5   1   61.75    3.64
   0   5   1   65.55    3.60
   0   5   1   64.42    3.56
   0   5   1   70.10    3.92
   0  -5  -1   66.42    4.04
   0  -5  -1   64.50    3.55
   0  -5  -1   66.02    3.71
   0  -5  -1   65.04    3.61
  -2   5   2    6.45    0.67
  -2   5   2    5.87    0.77
  -2   5   2    7.01    0.78
  -2   5   2    5.99    0.65
  -2   5   2    5.58    0.69
  -2   5   2    5.55    0.66
   2  -5  -2    6.20    0.79
   2  -5  -2    6.15    0.77
   2  -5  -2    4.81    0.68
   2  -5  -2    6.32    0.71
   2  -5  -2    6.10    0.74
   2  -5  -2    5.87    0.52
   2  -5  -2    5.83    0.80
   2  -5  -2    5.95    0.48
   2  -5  -2    5.77    0.55
  -4   5   3   29.30    1.98
  -4   5   3   31.36    2.25
  -4   5   3   29.54    1.82
  -4   5   3   32.25    2.17
   4  -5  -3   27.74    2.10
   4  -5  -3   27.60    2.06
   4  -5  -3   29.37    1.83
   4  -5  -3   30.05    1.83
  -6   5   4    0.94    0.47
  -6   5   4    1.16    0.51
  -6   5   4    1.16    0.57
  -6   5   4   -0.26    0.34
  -6   5   4    0.12    0.22
   6  -5  -4    0.20    0.62
   6  -5  -4    0.89    0.58
   6  -5  -4    0.25    0.39
   6  -5  -4    0.66    0.27
   6  -5  -4    0.46    0.13
  -8   5   5    0.87    0.95
  -8   5   5    2.04    0.73
  -8   5   5    3.86    1.41
  -8   5   5    2.27    0.99
  -8   5   5    2.56    0.77
   8  -5  -5    1.86    0.99
   8  -5  -5    3.85    1.01
   8  -5  -5    0.76    0.77
   5   6  -2    0.40    0.69
   5   6  -2   -0.66    0.42
   5   6  -2   -0.24    0.50
  -5  -6   2   -0.41    0.60
  -5  -6   2    0.17    0.78
   3   6  -1   44.56    3.00
   3   6  -1   38.10    2.76
   3   6  -1   35.26    2.67
   3   6  -1   38.69    2.81
  -3  -6   1   37.53    2.84
  -3  -6   1   38.96    2.77
  -3  -6   1   39.95    2.94
  -3  -6   1   36.17    2.58
   1   6   0    6.90    0.97
   1   6   0    5.41    0.55
   1   6   0    7.39    0.96
   1   6   0    5.27    0.53
   1   6   0    5.63    0.77
   1   6   0    3.43    0.81
  -1  -6   0    4.84    0.66
  -1  -6   0    5.94    0.58
  -1  -6   0    6.51    1.18
  -1  -6   0    5.85    0.58
  -1  -6   0    6.30    0.88
  -1  -6   0    8.13    1.28
  -1   6   1   18.18    1.28
  -1   6   1   18.72    1.40
  -1   6   1   18.45    1.33
  -1   6   1   17.64    1.31
  -1   6   1   18.43    1.33
  -1   6   1   17.98    1.50
   1  -6  -1   18.04    1.50
   1  -6  -1   19.33    1.57
   1  -6  -1   17.80    1.12
   1  -6  -1   14.88    1.35
   1  -6  -1   17.53    1.30
  -3   6   2    0.07    0.24
  -3   6   2    0.50    0.38
  -3   6   2    0.18    0.30
  -3   6   2    0.25    0.31
  -3   6   2    0.19    0.28
  -3   6   2    0.32    0.37
   3  -6  -2    0.68    0.46
   3  -6  -2    0.22    0.15
   3  -6  -2    1.15    0.42
   3  -6  -2    0.11    0.14
   3  -6  -2    0.05    0.16
   3  -6  -2    0.54    0.34
  -5   6   3    1.00    0.72
  -5   6   3    1.01    0.59
  -5   6   3    0.79    0.47
  -5   6   3    0.97    0.46
  -5   6   3    0.40    0.38
   5  -6  -3    0.89    0.34
   5  -6  -3    1.23    0.61
   5  -6  -3    1.02    0.35
   5  -6  -3    0.76    0.61
   5  -6  -3    0.78    0.34
  -7   6   4    8.13    1.44
  -7   6   4    5.91    0.76
  -7   6   4    7.54    1.34
  -7   6   4    7.85    1.45
   7  -6  -4    9.24    1.65
   7  -6  -4    8.07    1.39
   7  -6  -4    8.48    0.99
  -9   6   5    1.93    0.96
  -9   6   5    1.65    0.89
  -9   6   5    1.68    0.98
   9  -6  -5    2.26    0.86
   9  -6  -5    2.22    1.28
   4   7  -2    1.22    0.87
   4   7  -2    3.56    1.00
   4   7  -2    1.89    0.98
  -4  -7   2    4.43    1.28
  -4  -7   2    1.52    0.94
  -4  -7   2    1.67    0.96
   2   7  -1   18.81    1.77
   2   7  -1   17.93    1.72
   2   7  -1   15.96    1.55
   2   7  -1   18.83    1.65
  -2  -7   1   17.36    1.74
  -2  -7   1   17.37    1.74
  -2  -7   1   19.17    1.78
  -2  -7   1   16.15    1.39
   0   7   0    2.14    0.50
   0   7   0    2.55    0.65
   0   7   0    1.36    0.58
   0   7   0    2.77    0.67
   0   7   0    2.53    0.76
   0  -7   0    1.86    0.68
   0  -7   0    1.67    0.52
   0  -7   0    3.23    0.86
   0  -7   0    2.81    0.80
  -2   7   1   12.59    1.13
  -2   7   1   11.63    1.02
  -2   7   1   12.12    1.23
  -2   7   1   12.17    1.38
  -2   7   1   11.33    1.01
   2  -7  -1   12.24    0.98
   2  -7  -1   11.41    1.21
   2  -7  -1   11.82    1.22
   2  -7  -1   10.83    0.94
   2  -7  -1   10.98    1.16
  -4   7   2    6.78    0.99
   4  -7  -2    8.85    0.91
  -6   7   3   -0.08    0.59
  -6   7   3    0.15    0.59
  -6   7   3    0.28    0.52
  -6   7   3    0.13    0.42
   6  -7  -3    0.51    0.61
   6  -7  -3    0.29    0.30
   6  -7  -3    0.08    0.51
   6  -7  -3    0.93    0.31
  -8   7   4    2.58    0.88
  -8   7   4    2.16    1.12
   8  -7  -4    2.78    1.02
   8  -7  -4    3.95    1.20
   3   8  -2    0.07    0.75
   3   8  -2    0.93    0.77
   3   8  -2    2.23    0.95
  -3  -8   2    2.17    1.06
  -3  -8   2    0.58    0.87
  -3  -8   2    0.57    0.82
   1   8  -1    9.25    0.64
   1   8  -1    9.61    1.36
  -1  -8   1    8.91    0.67
  -1  -8   1   12.10    1.36
  -1  -8   1    8.77    0.69
  -1  -8   1   12.08    1.67
  -1   8   0    0.50    0.40
  -1   8   0    1.28    0.53
  -1   8   0    1.33    0.67
  -1   8   0    1.02    0.46
  -1   8   0    1.33    0.47
   1  -8   0    1.01    0.56
   1  -8   0   -0.21    0.43
   1  -8   0   -0.01    0.52
   1  -8   0    0.47    0.50
  -3   8   1    1.82    0.50
  -3   8   1    2.16    0.72
  -3   8   1    1.90    0.78
  -3   8   1    1.78    0.58
  -3   8   1    1.56    0.53
   3  -8  -1    1.56    0.82
   3  -8  -1    1.56    0.45
   3  -8  -1    1.80    0.48
   3  -8  -1    3.38    0.85
   3  -8  -1    2.73    0.87
  -5   8   2    0.21    0.44
  -5   8   2    0.13    0.32
  -5   8   2    0.38    0.37
  -5   8   2    0.01    0.49
   5  -8  -2    0.52    0.48
   5  -8  -2    0.36    0.59
   5  -8  -2   -0.54    0.40
   5  -8  -2    0.58    0.45
  -7   8   3    1.67    0.58
  -7   8   3    2.30    1.01
  -7   8   3    4.35    1.18
  -7   8   3    2.38    1.01
   7  -8  -3    2.03    1.00
  -9   8   4   -1.66    1.02
  -9   8   4    1.88    1.06
   9  -8  -4    1.39    0.85
   2   9  -2    0.75    0.68
   2   9  -2   -0.93    0.59
   2   9  -2   -0.61    0.75
  -2  -9   2   -0.44    0.80
  -2  -9   2   -0.41    0.82
  -2  -9   2    0.13    0.63
   0   9  -1    0.24    0.50
   0   9  -1    0.38    0.64
   0   9  -1    0.54    0.39
   0   9  -1    0.16    0.44
   0  -9   1    0.63    0.54
   0  -9   1    0.51    0.62
   0  -9   1    1.84    0.56
   0  -9   1    1.65    0.86
  -2   9   0    2.31    0.79
  -2   9   0    2.34    0.70
  -2   9   0    3.28    0.90
   2  -9   0    3.14    0.89
   2  -9   0    3.88    0.92
  -4   9   1   21.35    1.97
  -4   9   1   20.92    1.86
  -4   9   1   23.24    1.62
  -4   9   1   20.32    1.58
   4  -9  -1   22.05    1.78
   4  -9  -1   19.81    1.38
   4  -9  -1   19.81    1.95
   4  -9  -1   22.19    2.03
   4  -9  -1   18.04    1.35
  -6   9   2    1.04    0.43
  -6   9   2    0.35    0.59
  -6   9   2    0.31    0.74
  -6   9   2    0.38    0.74
   6  -9  -2    0.97    0.62
   6  -9  -2    2.31    1.07
   6  -9  -2    1.79    0.66
   6  -9  -2    1.18    0.76
  -8   9   3    0.63    0.71
  -8   9   3   -0.29    0.81
   8  -9  -3    1.75    0.87
   1  10  -2    0.41    0.76
   1  10  -2    0.60    0.61
   1  10  -2    1.29    0.78
  -1 -10   2   -0.31    0.98
  -1 -10   2    0.93    0.82
  -1 -10   2    1.99    1.10
  -1  10  -1    0.34    0.74
  -1  10  -1    0.85    0.61
  -1  10  -1    0.90    0.51
  -1  10  -1    0.19    0.50
   1 -10   1   -0.69    0.55
   1 -10   1    0.39    0.69
   1 -10   1    0.37    0.69
  -3  10   0    1.60    0.85
  -3  10   0    2.38    0.85
  -3  10   0    2.32    0.66
  -3  10   0    1.63    0.71
  -3  10   0    1.41    0.67
   3 -10   0    1.34    0.90
   3 -10   0    2.74    0.76
   3 -10   0    1.99    0.87
   3 -10   0    1.71    0.82
  -5  10   1    0.21    0.41
  -5  10   1    0.54    0.67
  -5  10   1   -0.17    0.64
  -5  10   1    0.55    0.69
   5 -10  -1    0.33    0.59
   5 -10  -1    0.32    0.78
   5 -10  -1    1.46    0.86
   5 -10  -1    0.15    0.63
  -7  10   2    2.80    1.06
  -7  10   2    1.08    0.62
  -7  10   2    0.35    1.00
   7 -10  -2   -0.76    1.08
   7 -10  -2    0.52    0.86
   0  11  -2    0.78    0.64
   0  11  -2    0.21    1.25
   0 -11   2    2.76    1.15
   0 -11   2    2.82    1.49
  -2  11  -1    3.75    1.31
  -2  11  -1    4.64    1.05
  -2  11  -1    3.53    1.06
  -2  11  -1    2.93    1.00
  -2  11  -1    3.78    0.82
   2 -11   1    5.84    1.19
   2 -11   1    4.44    1.35
   2 -11   1    4.37    1.39
   2 -11   1    3.83    1.51
  -4  11   0    2.79    1.00
  -4  11   0    2.64    0.88
  -4  11   0    2.29    0.72
  -4  11   0    2.35    0.83
   4 -11   0    0.98    1.04
   4 -11   0    2.28    1.16
  -6  11   1    0.72    0.81
  -6  11   1    0.57    1.04
   6 -11  -1   -0.90    0.89
   6 -11  -1    0.36    0.73
   6 -11  -1   -0.16    0.83
  -3  12  -1    7.88    1.60
  -3  12  -1    6.96    1.65
  -3  12  -1    7.75    1.46
   3 -12   1    6.80    1.60
   3 -12   1    6.31    1.25
   3 -12   1    5.81    1.57
   3 -12   1    8.53    1.74
   3 -12   1    4.51    1.47
   4 -10   7    1.65    0.94
   4 -10   7   -0.96    0.67
   4 -10   7    0.12    0.72
   4 -10   7    0.95    0.91
   4 -10   7    1.44    0.82
   4 -10   7    0.00    0.62
  -4  10  -7    0.63    0.28
  -4  10  -7    0.41    0.23
  -4  10  -7    3.44    1.19
   2 -10   8    0.07    0.81
   2 -10   8   -0.09    0.73
   2 -10   8   -0.41    0.59
   2 -10   8   -0.83    0.72
   2 -10   8    0.69    0.82
  -2  10  -8    0.19    0.37
  -2  10  -8    0.03    0.35
  -2  10  -8    0.73    0.65
  -2  10  -8    0.56    0.80
  -2  10  -8    0.30    0.82
   7  -9   5    2.76    1.28
   7  -9   5    4.88    1.41
   7  -9   5    2.10    1.29
   7  -9   5    4.09    1.11
  -7   9  -5    2.57    1.11
  -7   9  -5    4.27    1.25
  -7   9  -5    4.79    0.90
  -7   9  -5    3.40    1.19
   5  -9   6   -0.07    0.65
   5  -9   6    0.84    0.65
   5  -9   6    0.00    0.63
   5  -9   6    2.13    0.95
   5  -9   6    0.80    0.88
   5  -9   6    0.31    0.68
  -5   9  -6    0.53    0.68
  -5   9  -6    0.87    0.63
  -5   9  -6    0.76    0.37
  -5   9  -6    1.55    0.46
   3  -9   7    0.83    0.74
   3  -9   7    0.31    0.64
   3  -9   7    1.03    0.62
   3  -9   7    0.58    0.69
   3  -9   7   -0.13    0.63
  -3   9  -7    0.49    0.61
  -3   9  -7    0.34    0.25
  -3   9  -7    0.28    0.59
   1  -9   8   -0.09    0.54
   1  -9   8    0.92    0.94
   1  -9   8   -0.90    0.57
  -1   9  -8    0.03    0.57
  -1   9  -8   -0.62    0.38
  -1   9  -8    2.04    0.89
  -1   9  -8   -0.01    0.52
  -1   9  -8    0.44    0.40
   1   9  -9    0.39    0.87
   1   9  -9   -0.90    0.51
   6  -8   5    5.87    0.90
   6  -8   5    8.66    1.75
   6  -8   5    7.35    1.67
   6  -8   5    6.75    1.28
   6  -8   5    6.89    1.13
  -6   8  -5    6.37    0.85
  -6   8  -5    6.83    1.03
  -6   8  -5    8.34    1.51
  -6   8  -5    5.50    1.03
  -6   8  -5    9.47    1.63
   4  -8   6    1.22    0.79
   4  -8   6    1.29    0.61
   4  -8   6    1.18    0.68
   4  -8   6    1.39    0.70
   4  -8   6    2.90    1.02
  -4   8  -6    1.84    0.43
  -4   8  -6    1.20    0.65
  -4   8  -6    1.99    0.76
  -4   8  -6    1.51    0.38
   2  -8   7    3.48    0.91
   2  -8   7    2.00    0.86
   2  -8   7    2.29    0.79
   2  -8   7    4.15    0.98
  -2   8  -7    3.26    0.53
  -2   8  -7    2.03    0.68
  -2   8  -7    3.51    0.62
  -2   8  -7    4.14    1.00
   0  -8   8    0.75    0.51
   0  -8   8    0.24    0.73
   0  -8   8    0.67    0.76
   0  -8   8   -0.78    0.51
   0   8  -8    0.87    0.48
   0   8  -8    0.19    0.73
   0   8  -8    0.83    0.66
   0   8  -8   -0.27    0.39
   0   8  -8    1.16    0.52
  -2  -8   9    3.39    1.26
  -2  -8   9    3.48    1.21
   2   8  -9    2.42    0.83
   2   8  -9    1.70    0.84
   2   8  -9    3.53    1.34
   2   8  -9    3.07    1.23
   7  -7   4   -1.20    0.68
   7  -7   4   -0.43    0.64
   7  -7   4   -0.38    0.43
  -7   7  -4   -0.56    0.73
  -7   7  -4    0.03    0.76
  -7   7  -4   -0.36    0.43
   5  -7   5    1.28    0.49
   5  -7   5    1.45    0.81
   5  -7   5    1.00    0.55
   5  -7   5    1.06    0.80
   5  -7   5    1.54    0.63
  -5   7  -5    1.07    0.40
  -5   7  -5    1.76    0.65
  -5   7  -5    2.15    0.86
  -5   7  -5    2.12    0.55
  -5   7  -5    2.27    0.83
   3  -7   6    0.92    0.54
   3  -7   6    1.01    0.52
   3  -7   6    0.36    0.42
   3  -7   6    0.76    0.51
  -3   7  -6    0.31    0.28
  -3   7  -6    0.99    0.27
  -3   7  -6    0.15    0.50
  -3   7  -6    1.09    0.49
  -3   7  -6    0.98    0.55
   1  -7   7    6.84    1.12
   1  -7   7    7.73    1.30
   1  -7   7    5.70    1.21
  -1   7  -7    5.60    1.13
  -1   7  -7    5.89    1.19
  -1   7  -7    4.34    0.59
  -1   7  -7    5.41    0.63
  -1   7  -7    6.71    1.05
  -1  -7   8    0.72    0.46
  -1  -7   8    1.09    0.72
  -1  -7   8    2.19    0.60
  -1  -7   8    1.23    0.58
  -1  -7   8    1.57    0.82
   1   7  -8    1.18    0.67
   1   7  -8    2.40    0.91
   1   7  -8    0.82    0.50
   1   7  -8    1.74    0.63
   1   7  -8    1.16    0.49
  -3  -7   9    0.48    1.03
  -3  -7   9    1.37    0.78
   3   7  -9   -0.30    0.61
   3   7  -9    0.50    0.88
   3   7  -9    0.84    0.76
   3   7  -9    0.36    0.59
  -8   6  -3    1.20    1.03
   6  -6   4    3.37    0.97
   6  -6   4    2.72    0.72
   6  -6   4    4.05    0.90
   6  -6   4    2.61    0.94
  -6   6  -4    2.99    0.69
  -6   6  -4    4.55    1.10
  -6   6  -4    3.32    1.03
  -6   6  -4    3.71    0.75
   4  -6   5    8.29    1.37
   4  -6   5    7.86    0.78
   4  -6   5    7.22    0.87
   4  -6   5    8.21    1.47
   4  -6   5    7.19    0.80
   4  -6   5    7.91    0.79
  -4   6  -5    7.91    0.75
  -4   6  -5    8.45    1.37
  -4   6  -5    6.00    0.67
  -4   6  -5    8.03    0.94
  -4   6  -5    8.08    1.07
   2  -6   6    7.25    1.28
   2  -6   6    8.17    1.29
   2  -6   6    5.86    0.73
   2  -6   6    7.25    1.24
   2  -6   6    7.03    1.10
  -2   6  -6    6.66    1.20
  -2   6  -6    7.13    1.26
  -2   6  -6    6.10    0.79
  -2   6  -6    6.02    0.60
  -2   6  -6    6.45    0.70
  -2   6  -6    5.25    0.54
   0  -6   7    6.12    0.84
   0  -6   7    8.80    0.98
   0  -6   7    7.72    1.06
   0  -6   7    7.91    0.84
   0  -6   7    8.27    0.93
   0   6  -7    7.99    1.17
   0   6  -7    8.62    1.03
   0   6  -7    7.15    0.75
   0   6  -7    9.41    0.91
   0   6  -7    9.15    0.85
  -2  -6   8    1.16    0.49
  -2  -6   8    1.05    0.60
  -2  -6   8    0.86    0.42
  -2  -6   8    2.07    0.56
  -2  -6   8   -0.04    0.52
   2   6  -8    1.78    0.87
   2   6  -8    1.86    0.76
   2   6  -8    1.23    0.57
   2   6  -8    0.31    0.45
   2   6  -8    0.59    0.55
  -4  -6   9    0.62    0.79
  -4  -6   9    1.05    0.94
   4   6  -9    1.16    0.93
   4   6  -9    0.58    0.62
   4   6  -9   -0.44    0.67
   4   6  -9   -0.38    0.44
   9  -5   2   -1.64    0.79
  -9   5  -2    0.17    1.10
  -9   5  -2   -0.49    0.78
   7  -5   3    0.43    0.49
   7  -5   3    1.84    0.83
   7  -5   3    1.59    0.76
   7  -5   3    0.05    0.26
  -7   5  -3   -0.16    0.85
  -7   5  -3   -0.42    0.27
  -7   5  -3    0.33    0.68
  -7   5  -3    1.96    0.87
   5  -5   4    3.34    0.75
   5  -5   4    3.64    0.90
   5  -5   4    4.12    1.04
   5  -5   4    3.50    0.97
  -5   5  -4    3.65    0.72
  -5   5  -4    4.22    0.98
  -5   5  -4    3.20    0.93
  -5   5  -4    3.56    0.66
   3  -5   5    0.01    0.48
   3  -5   5    0.40    0.30
   3  -5   5    0.72    0.52
   3  -5   5    0.05    0.29
   3  -5   5    0.89    0.34
   3  -5   5    0.45    0.31
  -3   5  -5    0.51    0.30
  -3   5  -5    1.02    0.49
  -3   5  -5    0.33    0.24
  -3   5  -5    0.34    0.23
   1  -5   6    4.17    0.97
   1  -5   6    4.37    1.00
   1  -5   6    4.50    0.84
   1  -5   6    4.29    0.52
  -1   5  -6    3.36    0.43
  -1   5  -6    4.77    0.98
  -1   5  -6    3.79    0.91
  -1   5  -6    3.81    0.95
  -1   5  -6    4.07    0.60
  -1   5  -6    3.48    0.50
  -1  -5   7    0.33    0.33
  -1  -5   7    0.90    0.49
  -1  -5   7    0.93    0.41
  -1  -5   7    0.33    0.36
   1   5  -7    0.11    0.41
   1   5  -7    0.19    0.35
   1   5  -7    0.62    0.29
   1   5  -7    0.71    0.59
   1   5  -7    0.10    0.29
  -3  -5   8    4.67    1.12
  -3  -5   8    4.64    0.70
   3   5  -8    3.70    0.81
   3   5  -8    3.67    0.89
   3   5  -8    3.96    0.89
   3   5  -8    4.00    1.06
  -5  -5   9    3.20    0.91
  -5  -5   9    5.35    1.45
   5   5  -9    3.75    1.00
   5   5  -9    2.64    1.03
   5   5  -9    4.24    1.23
   5   5  -9    2.69    1.06
   8  -4   2    1.16    0.88
   8  -4   2    0.91    0.73
   8  -4   2    3.73    0.94
  -8   4  -2    0.68    0.81
  -8   4  -2   -0.97    0.77
   6  -4   3   -0.15    0.43
   6  -4   3    0.66    0.55
   6  -4   3    0.86    0.37
   6  -4   3    0.24    0.39
   6  -4   3   -0.23    0.42
  -6   4  -3    0.16    0.36
  -6   4  -3    0.93    0.35
   4  -4   4    1.75    0.55
   4  -4   4    1.67    0.28
   4  -4   4    2.40    0.74
   4  -4   4    2.40    0.56
   4  -4   4    1.93    0.72
  -4   4  -4    2.21    0.50
  -4   4  -4    2.30    0.54
  -4   4  -4    2.59    0.59
  -4   4  -4    1.94    0.72
  -4   4  -4    1.96    0.71
  -4   4  -4    1.89    0.53
   2  -4   5   46.38    2.99
   2  -4   5   48.17    2.97
   2  -4   5   49.07    2.79
   2  -4   5   51.01    2.71
   2  -4   5   47.76    2.68
  -2   4  -5   49.98    2.71
  -2   4  -5   48.73    2.79
  -2   4  -5   47.65    2.98
  -2   4  -5   51.80    3.11
  -2   4  -5   46.62    2.66
   0  -4   6    5.68    1.04
   0  -4   6    5.70    0.86
   0  -4   6    4.87    0.98
   0  -4   6    4.29    0.51
   0  -4   6    4.88    0.89
   0   4  -6    5.33    0.71
   0   4  -6    3.78    0.52
   0   4  -6    5.10    0.96
   0   4  -6    6.11    1.09
   0   4  -6    5.52    0.95
   0   4  -6    4.35    0.49
  -2  -4   7   59.18    3.32
  -2  -4   7   58.16    3.24
  -2  -4   7   53.76    3.33
  -2  -4   7   56.46    3.68
  -2  -4   7   56.52    3.24
   2   4  -7   51.64    3.24
   2   4  -7   59.40    3.50
   2   4  -7   59.08    3.67
   2   4  -7   60.07    3.42
   2   4  -7   57.92    3.68
  -4  -4   8    1.09    0.41
  -4  -4   8   -0.03    0.29
  -4  -4   8    0.02    0.75
  -4  -4   8   -0.78    0.52
   4   4  -8    2.06    0.77
   4   4  -8    0.31    0.65
   4   4  -8   -0.34    0.43
   4   4  -8    0.60    0.59
   4   4  -8    0.75    0.79
   4   4  -8    0.65    0.40
  -6  -4   9    0.08    0.86
  -6  -4   9    0.78    0.77
   6   4  -9    0.85    0.86
   6   4  -9    0.18    0.70
   6   4  -9    0.53    0.79
   9  -3   1    2.41    1.03
   9  -3   1    0.19    0.91
   9  -3   1    1.87    0.93
  -9   3  -1    2.68    1.19
  -9   3  -1    1.23    1.26
  -9   3  -1    1.51    1.04
   7  -3   2    0.06    0.60
   7  -3   2    0.51    0.51
   7  -3   2    0.04    0.56
   7  -3   2   -0.19    0.27
   7  -3   2   -0.67    0.47
  -7   3  -2    0.23    0.49
  -7   3  -2    0.11    0.28
  -7   3  -2   -0.42    0.63
  -7   3  -2   -1.45    0.68
   5  -3   3    1.33    0.43
   5  -3   3    1.26    0.41
   5  -3   3    2.15    0.75
   5  -3   3    0.44    0.59
   5  -3   3    0.48    0.48
  -5   3  -3    1.83    0.68
  -5   3  -3    1.18    0.41
  -5   3  -3    0.72    0.51
   3  -3   4    0.14    0.23
   3  -3   4    0.03    0.15
   3  -3   4    0.17    0.16
   3  -3   4   -0.23    0.18
   3  -3   4    0.10    0.42
   3  -3   4    0.04    0.24
   3  -3   4    0.30    0.15
   3  -3   4    0.18    0.14
   3  -3   4    0.49    0.41
  -3   3  -4    0.31    0.28
  -3   3  -4    0.35    0.27
  -3   3  -4    0.06    0.23
  -3   3  -4    0.33    0.23
   1  -3   5    9.59    0.96
   1  -3   5    8.43    0.79
   1  -3   5    9.22    0.89
   1  -3   5    9.17    0.93
   1  -3   5    9.33    0.96
   1  -3   5    9.43    0.64
  -1   3  -5    9.70    0.95
  -1   3  -5   11.52    1.08
  -1   3  -5    9.56    0.81
  -1   3  -5    9.54    0.77
  -1   3  -5    9.05    0.73
  -1   3  -5    9.48    0.93
  -1  -3   6    8.09    0.72
  -1  -3   6    7.81    0.89
  -1  -3   6    7.79    0.68
  -1  -3   6    8.24    0.83
  -1  -3   6    8.18    1.02
  -1  -3   6    7.97    0.77
   1   3  -6    9.08    1.01
   1   3  -6    7.79    0.75
   1   3  -6    8.80    0.71
   1   3  -6    7.08    0.82
   1   3  -6    7.20    1.05
   1   3  -6    7.32    0.76
  -3  -3   7   20.95    1.43
  -3  -3   7   20.49    1.56
  -3  -3   7   20.36    1.77
  -3  -3   7   20.56    1.48
   3   3  -7   19.17    1.68
   3   3  -7   17.90    1.43
   3   3  -7   21.41    1.80
   3   3  -7   20.08    1.58
   3   3  -7   20.88    1.69
  -5  -3   8    1.46    0.47
  -5  -3   8    0.79    0.66
  -5  -3   8    1.49    0.52
  -5  -3   8    1.51    0.78
  -5  -3   8    1.09    0.48
   5   3  -8    1.92    0.76
   5   3  -8    2.09    0.79
   5   3  -8    0.80    0.65
   5   3  -8    1.97    0.71
   5   3  -8    2.36    0.87
  -7  -3   9   -0.79    0.86
  -7  -3   9    1.10    0.89
   7   3  -9    0.43    0.95
   7   3  -9   -0.35    0.78
   7   3  -9   -0.15    0.77
   8  -2   1    1.29    0.87
   8  -2   1    1.93    0.76
   8  -2   1    0.40    0.65
  -8   2  -1    0.38    0.40
  -8   2  -1    1.59    0.72
  -8   2  -1    1.97    0.85
  -8   2  -1    1.06    0.68
   6  -2   2    0.67    0.38
   6  -2   2    0.77    0.44
   6  -2   2    0.63    0.55
   6  -2   2    1.26    0.52
   6  -2   2    0.84    0.48
  -6   2  -2    0.72    0.48
  -6   2  -2    3.01    0.68
  -6   2  -2    0.93    0.39
  -6   2  -2    0.17    0.50
  -6   2  -2    0.80    0.60
   4  -2   3   29.91    1.90
   4  -2   3   33.68    2.28
   4  -2   3   31.19    2.14
   4  -2   3   28.79    1.88
   4  -2   3   29.27    1.93
  -4   2  -3   31.84    1.92
  -4   2  -3   28.43    2.13
  -4   2  -3   30.29    2.03
  -4   2  -3   28.60    1.89
   2  -2   4   21.91    1.36
   2  -2   4   21.78    1.61
   2  -2   4   23.20    1.54
   2  -2   4   24.06    1.65
   2  -2   4   22.53    1.35
   2  -2   4   23.87    1.31
   2  -2   4   22.90    1.65
   2  -2   4   23.09    1.71
  -2   2  -4   22.21    1.63
  -2   2  -4   23.53    1.50
  -2   2  -4   21.69    1.44
  -2   2  -4   21.47    1.52
  -2   2  -4   22.23    1.29
  -2   2  -4   24.16    1.67
   0  -2   5    3.34    0.60
   0  -2   5    2.73    0.27
   0  -2   5    2.85    0.55
   0  -2   5    3.35    0.37
   0  -2   5    2.90    0.60
   0   2  -5    3.05    0.28
   0   2  -5    4.20    0.70
   0   2  -5    4.90    0.82
   0   2  -5    3.94    0.62
   0   2  -5    3.58    0.49
   0   2  -5    4.07    0.76
   0   2  -5    2.78    0.39
  -2  -2   6    5.34    0.66
  -2  -2   6    4.37    0.56
  -2  -2   6    5.17    0.60
  -2  -2   6    6.32    1.01
  -2  -2   6    5.43    0.61
  -2  -2   6    5.65    0.73
  -2  -2   6    5.46    0.89
   2   2  -6    5.65    0.70
   2   2  -6    5.97    0.63
   2   2  -6    5.48    0.72
   2   2  -6    3.72    0.57
   2   2  -6    4.86    0.61
  -4  -2   7   14.23    1.42
  -4  -2   7   13.20    1.23
  -4  -2   7   13.52    1.10
  -4  -2   7   11.82    1.10
   4   2  -7   13.66    1.31
   4   2  -7   12.56    1.37
   4   2  -7   15.40    1.36
   4   2  -7   10.79    1.23
   4   2  -7   13.37    1.32
   4   2  -7   15.85    1.43
  -6  -2   8    0.89    0.61
  -6  -2   8    0.67    0.57
  -6  -2   8    0.72    0.64
  -6  -2   8    0.76    0.51
   6   2  -8    0.31    0.68
   6   2  -8    0.09    0.62
   6   2  -8    1.18    0.66
   6   2  -8    1.46    0.87
   9  -1   0    1.15    0.73
   9  -1   0   -0.08    0.66
   9  -1   0    1.83    1.11
  -9   1   0    0.13    0.91
  -9   1   0   -1.50    0.88
   7  -1   1    2.17    0.85
   7  -1   1    1.63    0.66
   7  -1   1    1.72    0.80
   7  -1   1    1.04    0.64
  -7   1  -1    2.43    0.82
  -7   1  -1    2.29    1.16
  -7   1  -1    1.39    0.37
  -7   1  -1    1.64    0.52
  -7   1  -1    2.04    0.84
   5  -1   2    3.29    0.79
   5  -1   2    3.63    0.84
   5  -1   2    3.55    0.62
   5  -1   2    2.41    0.63
   5  -1   2    2.28    0.69
  -5   1  -2    3.26    0.79
  -5   1  -2    3.33    0.82
  -5   1  -2    4.35    0.97
  -5   1  -2    3.12    0.64
   3  -1   3   21.99    1.42
   3  -1   3   17.51    1.28
   3  -1   3   18.63    1.54
   3  -1   3   17.05    1.42
  -3   1  -3   21.89    1.45
  -3   1  -3   22.73    1.60
  -3   1  -3   21.15    1.39
  -3   1  -3   19.17    1.53
  -3   1  -3   19.52    1.30
   1  -1   4   26.53    1.50
   1  -1   4   25.83    1.50
   1  -1   4   22.19    1.57
   1  -1   4   23.88    1.41
   1  -1   4   23.11    1.56
   1  -1   4   24.20    1.67
   1  -1   4   23.18    1.59
  -1   1  -4   24.71    1.64
  -1   1  -4   23.96    1.59
  -1   1  -4   23.72    1.41
  -1   1  -4   24.60    1.54
  -1   1  -4   24.21    1.62
  -1  -1   5    3.79    0.68
  -1  -1   5    4.05    0.67
  -1  -1   5    3.19    0.52
  -1  -1   5    3.42    0.60
  -1  -1   5    2.95    0.58
  -1  -1   5    3.55    0.61
  -1  -1   5    3.09    0.34
  -1  -1   5    3.17    0.60
   1   1  -5    2.67    0.61
   1   1  -5    3.63    0.68
   1   1  -5    3.10    0.58
   1   1  -5    3.16    0.54
   1   1  -5    3.51    0.62
   1   1  -5    3.78    0.67
   1   1  -5    3.26    0.60
  -3  -1   6    0.99    0.38
  -3  -1   6    1.06    0.44
  -3  -1   6    0.55    0.32
  -3  -1   6    2.00    0.57
  -3  -1   6    0.91    0.38
  -3  -1   6    1.38    0.48
  -3  -1   6    1.40    0.45
  -3  -1   6    1.44    0.47
   3   1  -6    1.14    0.42
   3   1  -6    0.62    0.35
   3   1  -6    0.33    0.30
   3   1  -6    1.19    0.45
   3   1  -6    0.58    0.32
   3   1  -6    0.83    0.37
  -5  -1   7    6.04    0.83
  -5  -1   7    7.06    1.19
  -5  -1   7    6.12    0.98
  -5  -1   7    5.65    1.08
   5   1  -7    6.25    1.11
   5   1  -7    8.60    1.45
   5   1  -7    7.11    1.01
   5   1  -7    6.57    0.90
   5   1  -7    6.67    1.25
   5   1  -7    7.53    1.22
  -7  -1   8    0.70    0.70
  -7  -1   8   -0.87    0.54
  -7  -1   8   -0.13    0.63
  -7  -1   8   -0.47    0.58
  -7  -1   8   -0.19    0.56
   7   1  -8    1.38    0.94
   7   1  -8   -1.02    0.52
   7   1  -8    0.37    0.57
   8   0   0    1.66    0.77
   8   0   0    1.35    0.80
   8   0   0    4.09    1.19
   8   0   0    1.64    0.75
   8   0   0    1.08    0.76
  -8   0   0    2.21    0.92
  -8   0   0    2.06    0.94
   6   0   1    6.47    1.24
   6   0   1    6.37    1.15
   6   0   1    3.73    0.50
   6   0   1    5.04    0.82
   6   0   1    5.96    1.07
   6   0   1    5.77    1.07
  -6   0  -1    4.18    0.53
  -6   0  -1    5.54    1.10
  -6   0  -1    5.40    1.20
  -6   0  -1    4.70    0.79
  -6   0  -1    5.67    1.09
   4   0   2    0.06    0.29
   4   0   2    0.77    0.35
   4   0   2    0.08    0.29
   4   0   2    0.30    0.37
   4   0   2    0.11    0.33
  -4   0  -2    0.23    0.16
  -4   0  -2    0.06    0.25
  -4   0  -2    0.01    0.28
  -4   0  -2    0.25    0.25
  -4   0  -2    0.66    0.45
  -4   0  -2   -0.26    0.27
   2   0   3   20.38    1.24
   2   0   3   20.80    1.38
   2   0   3   21.68    1.39
   2   0   3   19.92    1.37
   2   0   3   21.48    1.48
   2   0   3   18.75    1.39
   2   0   3   19.02    1.37
  -2   0  -3   18.36    1.39
  -2   0  -3   20.33    1.38
  -2   0  -3   19.32    1.10
  -2   0  -3   19.71    1.41
  -2   0  -3   20.49    1.37
  -2   0  -3   19.32    1.11
  -2   0  -3   18.14    1.41
  -2   0  -3   20.03    1.24
   0   0   4   26.60    1.69
   0   0   4   26.86    1.72
   0   0   4   27.10    1.66
   0   0   4   27.12    1.66
   0   0   4   27.29    1.65
   0   0   4   26.42    1.74
   0   0   4   26.89    1.59
   0   0  -4   27.31    1.74
   0   0  -4   26.89    1.69
   0   0  -4   28.31    1.62
   0   0  -4   26.05    1.39
   0   0  -4   26.85    1.64
   0   0  -4   26.24    1.39
   0   0  -4   25.47    1.69
   0   0  -4   25.83    1.66
   0   0  -4   27.65    1.70
  -2   0   5   19.15    1.42
  -2   0   5   20.64    1.43
  -2   0   5   21.55    1.40
  -2   0   5   19.43    1.27
  -2   0   5   20.98    1.41
  -2   0   5   18.67    1.36
  -2   0   5   21.79    1.41
  -2   0   5   18.57    1.41
   2   0  -5   20.44    1.43
   2   0  -5   20.40    1.30
   2   0  -5   20.37    1.45
   2   0  -5   18.77    1.44
   2   0  -5   22.28    1.47
   2   0  -5   20.49    1.43
  -4   0   6    8.08    0.86
  -4   0   6    9.78    0.97
  -4   0   6    8.85    0.92
  -4   0   6   10.72    1.07
  -4   0   6    8.51    0.91
  -4   0   6   10.03    1.03
  -4   0   6    7.35    0.97
   4   0  -6    9.96    1.03
   4   0  -6    8.50    0.97
   4   0  -6    8.12    0.92
   4   0  -6    8.94    0.92
   4   0  -6    9.17    0.96
   4   0  -6    9.25    1.16
   4   0  -6    8.94    0.93
  -6   0   7    4.28    0.86
   6   0  -7    2.54    0.74
   6   0  -7    2.96    0.84
   6   0  -7    2.02    0.76
   6   0  -7    3.71    0.85
  -8   0   8    0.06    0.68
  -8   0   8    0.56    0.72
  -8   0   8    0.49    0.81
  -8   0   8   -0.60    0.75
  -8   0   8    0.13    0.67
   8   0  -8   -0.08    0.52
   8   0  -8    0.40    0.87
   8   0  -8    0.11    0.82
   7   1   0   -0.03    0.67
   7   1   0   -0.14    0.43
   7   1   0   -0.09    0.39
   7   1   0   -0.52    0.49
   7   1   0    0.57    0.70
  -7  -1   0    1.06    0.59
  -7  -1   0    0.96    0.65
  -7  -1   0    0.33    0.49
  -7  -1   0   -0.05    0.65
   5   1   1   -0.22    0.39
   5   1   1    0.54    0.40
   5   1   1    0.59    0.41
   5   1   1   -0.35    0.43
   5   1   1    0.14    0.28
   5   1   1    1.05    0.49
   5   1   1   -0.04    0.21
  -5  -1  -1    0.12    0.55
  -5  -1  -1    0.15    0.36
  -5  -1  -1    0.29    0.32
  -5  -1  -1    0.15    0.27
  -5  -1  -1    1.12    0.57
   3   1   2   12.38    1.06
   3   1   2   12.12    1.07
   3   1   2   12.13    1.06
   3   1   2   10.98    0.98
   3   1   2   13.29    1.00
   3   1   2   11.83    1.01
   3   1   2   12.99    1.03
   3   1   2   11.20    1.07
  -3  -1  -2   12.93    0.91
  -3  -1  -2   12.77    0.87
  -3  -1  -2   10.47    1.08
  -3  -1  -2   11.81    1.15
  -3  -1  -2   13.13    1.08
  -3  -1  -2   12.36    1.08
  -3  -1  -2   10.88    1.05
  -3  -1  -2   12.27    1.05
   1   1   3   53.12    2.94
   1   1   3   49.61    2.91
   1   1   3   46.26    3.08
   1   1   3   50.76    2.94
   1   1   3   49.95    2.93
   1   1   3   51.10    2.79
   1   1   3   54.29    2.80
   1   1   3   54.52    2.99
  -1  -1  -3   50.28    2.94
  -1  -1  -3   53.34    2.79
  -1  -1  -3   53.38    2.96
  -1  -1  -3   54.33    2.97
  -1  -1  -3   52.29    2.96
  -1  -1  -3   53.20    2.95
  -1  -1  -3   50.55    2.96
  -1  -1  -3   52.51    2.79
  -1   1   4    1.50    0.47
  -1   1   4    1.60    0.34
  -1   1   4    1.91    0.34
  -1   1   4    1.06    0.37
  -1   1   4    1.10    0.35
  -1   1   4    2.19    0.44
  -1   1   4    1.69    0.41
   1  -1  -4    1.94    0.46
   1  -1  -4    1.56    0.31
   1  -1  -4    1.70    0.37
   1  -1  -4    1.75    0.45
   1  -1  -4    2.12    0.51
   1  -1  -4    1.64    0.43
   1  -1  -4    1.13    0.38
   1  -1  -4    2.01    0.35
   1  -1  -4    1.71    0.37
  -3   1   5   53.98    2.92
  -3   1   5   53.82    3.12
  -3   1   5   53.56    3.13
  -3   1   5   53.08    3.15
  -3   1   5   54.59    2.93
  -3   1   5   51.49    3.06
  -3   1   5   49.68    2.96
  -3   1   5   51.02    2.95
  -3   1   5   52.18    3.10
   3  -1  -5   51.88    3.12
   3  -1  -5   54.09    3.03
   3  -1  -5   50.44    3.11
   3  -1  -5   53.62    3.10
   3  -1  -5   48.77    2.95
   3  -1  -5   52.08    3.49
   3  -1  -5   50.27    2.90
  -5   1   6    0.45    0.54
  -5   1   6    0.99    0.55
  -5   1   6    0.53    0.29
  -5   1   6    1.72    0.60
  -5   1   6    0.67    0.48
  -5   1   6    0.59    0.35
   5  -1  -6    1.67    0.58
   5  -1  -6    1.10    0.50
   5  -1  -6    1.54    0.54
   5  -1  -6    1.53    0.48
   5  -1  -6    0.73    0.50
  -7   1   7    0.80    0.50
  -7   1   7    0.28    0.49
  -7   1   7   -0.03    0.57
  -7   1   7    0.55    0.58
  -7   1   7   -0.09    0.50
  -7   1   7    0.36    0.59
   7  -1  -7    0.87    0.48
   7  -1  -7    0.72    0.61
   7  -1  -7    0.16    0.46
   7  -1  -7    0.82    0.89
   8   2  -1   -0.23    0.66
   8   2  -1   -1.00    0.85
   8   2  -1    0.40    0.64
   8   2  -1    0.09    0.78
   8   2  -1   -0.10    0.88
  -8  -2   1   -0.37    0.84
  -8  -2   1    1.04    0.79
   6   2   0    9.90    1.58
   6   2   0   10.26    1.92
   6   2   0    6.65    0.97
   6   2   0    7.61    0.86
  -6  -2   0    7.73    1.61
  -6  -2   0    8.05    1.01
  -6  -2   0    8.37    1.52
   4   2   1    6.97    0.92
   4   2   1    7.64    0.77
   4   2   1    6.90    0.75
   4   2   1    7.00    0.80
   4   2   1    6.30    0.69
   4   2   1    7.64    0.96
   4   2   1    6.60    0.86
  -4  -2  -1    7.54    0.76
  -4  -2  -1    6.40    0.91
  -4  -2  -1    7.14    0.98
  -4  -2  -1    7.71    1.21
   2   2   2   47.40    2.59
   2   2   2   43.36    2.61
   2   2   2   42.89    2.65
   2   2   2   42.86    2.69
   2   2   2   44.19    2.72
   2   2   2   44.97    2.72
  -2  -2  -2   46.50    2.78
  -2  -2  -2   43.88    2.61
  -2  -2  -2   44.17    2.71
  -2  -2  -2   43.41    2.63
  -2  -2  -2   44.19    2.54
  -2  -2  -2   45.00    2.74
  -2  -2  -2   42.99    2.69
  -2  -2  -2   46.30    2.57
  -2  -2  -2   51.28    2.66
   0   2   3  151.40    7.77
   0   2   3  144.27    7.73
   0   2   3  156.13    7.76
   0   2   3  149.48    7.63
   0   2   3  145.44    7.73
   0   2   3  148.95    7.70
   0   2   3  153.85    7.68
   0   2   3  145.43    7.61
   0  -2  -3  148.11    7.73
   0  -2  -3  150.14    7.63
   0  -2  -3  157.95    7.71
   0  -2  -3  150.71    7.75
   0  -2  -3  151.38    7.71
   0  -2  -3  145.23    7.67
   0  -2  -3  149.74    7.77
   0  -2  -3  149.87    7.64
  -2   2   4   52.56    2.70
  -2   2   4   47.83    2.93
  -2   2   4   53.79    3.01
  -2   2   4   49.80    2.69
  -2   2   4   50.79    2.96
  -2   2   4   54.29    3.01
  -2   2   4   52.30    2.87
  -2   2   4   54.13    3.08
  -2   2   4   48.80    2.86
   2  -2  -4   53.82    3.01
   2  -2  -4   49.26    2.68
   2  -2  -4   54.18    2.91
   2  -2  -4   52.45    2.98
   2  -2  -4   49.77    2.87
   2  -2  -4   50.49    3.01
   2  -2  -4   50.08    2.86
   2  -2  -4   49.93    2.92
  -4   2   5    0.40    0.37
  -4   2   5    0.66    0.55
  -4   2   5    0.19    0.21
  -4   2   5    0.16    0.32
  -4   2   5   -0.16    0.32
  -4   2   5    0.15    0.31
  -4   2   5    0.06    0.23
  -4   2   5    0.26    0.25
   4  -2  -5    0.45    0.36
   4  -2  -5    0.64    0.33
   4  -2  -5    0.02    0.51
   4  -2  -5    0.09    0.25
   4  -2  -5   -0.03    0.26
   4  -2  -5    0.60    0.28
   4  -2  -5   -0.03    0.37
  -6   2   6    8.95    1.18
  -6   2   6    6.03    0.88
  -6   2   6    7.24    0.76
  -6   2   6    8.16    1.10
  -6   2   6    8.22    1.16
  -6   2   6    7.65    1.11
   6  -2  -6    9.25    1.11
   6  -2  -6   10.14    1.50
   6  -2  -6    7.70    0.77
   6  -2  -6    8.11    1.07
   6  -2  -6    7.84    0.92
  -8   2   7    2.57    0.98
  -8   2   7    1.69    0.89
  -8   2   7    1.69    0.80
  -8   2   7    1.35    1.05
  -8   2   7    1.36    0.63
   8  -2  -7    2.15    0.88
   8  -2  -7    1.94    0.90
   8  -2  -7    2.24    1.12
   7   3  -1    1.88    1.04
   7   3  -1    0.43    0.49
   7   3  -1    1.06    0.98
   7   3  -1    0.08    0.56
   7   3  -1   -0.40    0.52
  -7  -3   1    3.43    1.37
  -7  -3   1    0.01    0.85
  -7  -3   1    1.19    0.76
   5   3   0    6.70    0.72
   5   3   0    6.76    0.79
   5   3   0    8.37    0.92
   5   3   0    8.20    1.11
   5   3   0    6.34    0.81
   5   3   0    9.24    1.53
  -5  -3   0    8.58    1.52
  -5  -3   0    7.58    1.23
  -5  -3   0    8.63    1.44
   3   3   1    8.22    0.72
   3   3   1    8.76    0.86
   3   3   1    8.14    0.91
   3   3   1    8.27    0.75
   3   3   1    7.59    0.93
   3   3   1    8.61    0.94
   3   3   1    7.93    0.71
   3   3   1    7.44    0.73
  -3  -3  -1    7.36    0.84
  -3  -3  -1    7.73    0.86
  -3  -3  -1    8.89    0.99
  -3  -3  -1    8.77    0.97
  -3  -3  -1    8.54    0.97
  -3  -3  -1    8.50    1.04
  -3  -3  -1    8.63    0.78
   1   3   2    6.39    0.69
   1   3   2    5.48    0.65
   1   3   2    6.61    0.66
   1   3   2    6.56    0.70
   1   3   2    6.06    0.68
   1   3   2    6.56    0.60
   1   3   2    5.46    0.70
  -1  -3  -2    5.42    0.68
  -1  -3  -2    5.90    0.66
  -1  -3  -2    6.44    0.66
  -1  -3  -2    7.01    0.71
  -1  -3  -2    7.05    0.68
  -1  -3  -2    6.21    0.67
  -1  -3  -2    6.49    0.69
  -1  -3  -2    5.57    0.70
  -1   3   3    6.26    0.73
  -1   3   3    6.42    0.68
  -1   3   3    6.69    0.55
  -1   3   3    6.26    0.67
  -1   3   3    6.50    0.65
  -1   3   3    5.59    0.64
  -1   3   3    6.10    0.68
  -1   3   3    5.85    0.66
   1  -3  -3    6.45    0.63
   1  -3  -3    6.35    0.71
   1  -3  -3    6.28    0.65
   1  -3  -3    6.18    0.51
   1  -3  -3    7.62    0.72
   1  -3  -3    6.41    0.63
   1  -3  -3    5.09    0.67
   1  -3  -3    7.29    0.67
  -3   3   4   10.32    0.59
  -3   3   4    9.93    0.60
   3  -3  -4   10.35    0.98
   3  -3  -4    8.19    0.92
   3  -3  -4   12.91    1.09
   3  -3  -4   11.36    0.98
   3  -3  -4   14.16    1.04
   3  -3  -4   10.52    0.90
  -5   3   5    7.95    0.94
  -5   3   5   12.36    1.14
  -5   3   5    8.56    1.13
  -5   3   5    6.57    0.97
  -5   3   5    7.93    0.72
  -5   3   5    9.75    0.77
   5  -3  -5    8.28    1.03
   5  -3  -5    7.68    0.91
   5  -3  -5   10.03    0.76
   5  -3  -5    7.85    1.02
   5  -3  -5    8.44    0.74
  -7   3   6    4.47    1.19
  -7   3   6    4.41    1.15
  -7   3   6    6.50    1.25
  -7   3   6    5.04    0.92
  -7   3   6    3.67    0.52
  -7   3   6    3.88    1.15
  -7   3   6    4.13    0.51
   7  -3  -6    5.07    1.13
   7  -3  -6    6.39    1.19
  -9   3   7    0.22    0.83
  -9   3   7   -0.28    0.84
  -9   3   7   -0.46    0.93
  -9   3   7    2.36    0.94
   9  -3  -7    0.11    0.70
   9  -3  -7    1.08    0.84
   6   4  -1   -0.48    0.78
   6   4  -1    1.29    0.61
   6   4  -1    0.69    0.62
   6   4  -1    0.42    0.40
   6   4  -1   -0.14    0.33
  -6  -4   1    0.29    0.60
  -6  -4   1    2.21    0.86
  -6  -4   1    0.40    0.73
   4   4   0    5.01    0.55
   4   4   0    6.82    1.29
   4   4   0    6.44    1.12
   4   4   0    6.79    1.29
   4   4   0    4.08    0.52
   4   4   0    4.55    0.57
   4   4   0    6.57    1.21
  -4  -4   0    4.62    1.17
  -4  -4   0    7.04    0.96
  -4  -4   0    7.91    1.29
   2   4   1    1.13    0.45
   2   4   1    1.65    0.58
   2   4   1    1.75    0.56
   2   4   1    0.96    0.34
   2   4   1    1.12    0.45
   2   4   1    1.58    0.34
  -2  -4  -1    1.50    0.51
  -2  -4  -1    1.30    0.50
  -2  -4  -1    1.20    0.45
  -2  -4  -1    0.76    0.40
  -2  -4  -1    1.04    0.47
  -2  -4  -1    1.03    0.33
  -2  -4  -1    0.91    0.43
   0   4   2   17.47    1.22
   0   4   2   16.36    1.21
   0   4   2   16.71    1.25
   0   4   2   15.71    1.25
   0   4   2   16.15    1.15
   0   4   2   15.44    1.26
   0   4   2   15.27    1.21
   0   4   2   15.44    1.15
   0  -4  -2   15.95    1.19
   0  -4  -2   15.65    1.23
   0  -4  -2   13.58    1.21
   0  -4  -2   15.38    1.14
   0  -4  -2   16.51    1.34
   0  -4  -2   17.07    1.31
   0  -4  -2   16.00    1.15
   0  -4  -2   15.64    1.19
   0  -4  -2   15.59    1.14
  -2   4   3   29.65    2.05
  -2   4   3   37.59    2.21
  -2   4   3   29.02    2.11
  -2   4   3   29.50    1.70
  -2   4   3   39.03    2.30
   2  -4  -3   39.39    2.29
   2  -4  -3   39.54    2.23
   2  -4  -3   35.91    1.74
   2  -4  -3   28.79    2.18
   2  -4  -3   34.72    2.15
  -4   4   4    1.86    0.70
  -4   4   4    2.37    0.57
  -4   4   4    1.69    0.43
  -4   4   4    2.54    0.66
  -4   4   4    2.06    0.63
   4  -4  -4    2.41    0.66
   4  -4  -4    1.42    0.41
   4  -4  -4    1.85    0.54
   4  -4  -4    2.22    0.67
  -6   4   5    0.57    0.25
  -6   4   5    0.23    0.32
  -6   4   5    0.25    0.57
  -6   4   5    0.70    0.61
  -6   4   5    0.47    0.57
  -6   4   5    0.25    0.50
   6  -4  -5    0.28    0.24
   6  -4  -5   -0.09    0.47
   6  -4  -5    0.13    0.28
   6  -4  -5    0.34    0.41
   6  -4  -5    0.52    0.56
  -8   4   6    2.16    0.87
  -8   4   6    3.28    1.02
  -8   4   6    2.69    1.09
  -8   4   6    1.95    1.12
   8  -4  -6    1.95    0.92
   8  -4  -6    1.29    0.90
   8  -4  -6    1.20    0.67
   5   5  -1    0.61    0.55
   5   5  -1    0.00    0.66
   5   5  -1    0.61    0.54
  -5  -5   1    0.45    0.82
   3   5   0    6.36    0.55
   3   5   0    8.09    1.03
   3   5   0    7.67    0.58
   3   5   0    7.10    1.00
   3   5   0    8.01    1.00
   3   5   0    5.84    0.82
  -3  -5   0    7.61    1.05
  -3  -5   0    7.85    1.02
  -3  -5   0    7.64    1.10
  -3  -5   0    6.38    0.90
   1   5   1    1.50    0.54
   1   5   1    1.56    0.55
   1   5   1    2.22    0.47
   1   5   1    1.90    0.53
   1   5   1    2.14    0.68
   1   5   1    2.18    0.58
   1   5   1    2.33    0.48
  -1  -5  -1    2.49    0.48
  -1  -5  -1    2.53    0.63
  -1  -5  -1    1.97    0.58
  -1  -5  -1    1.89    0.51
  -1  -5  -1    2.02    0.62
  -1  -5  -1    2.36    0.49
  -1   5   2    3.88    0.76
  -1   5   2    4.44    0.63
  -1   5   2    5.82    0.87
  -1   5   2    4.08    0.56
  -1   5   2    4.05    0.57
  -1   5   2    3.18    0.44
   1  -5  -2    4.63    0.62
   1  -5  -2    5.92    1.08
   1  -5  -2    4.01    0.47
   1  -5  -2    4.16    0.80
   1  -5  -2    4.19    0.79
  -3   5   3    8.97    1.03
  -3   5   3    8.97    0.81
  -3   5   3    6.94    0.79
  -3   5   3    8.37    0.94
   3  -5  -3    7.89    0.77
   3  -5  -3    7.69    0.81
   3  -5  -3    7.65    0.88
   3  -5  -3    7.82    0.92
  -5   5   4   -0.31    0.27
  -5   5   4   -0.28    0.35
  -5   5   4    0.01    0.37
  -5   5   4    0.53    0.38
  -5   5   4    0.09    0.28
   5  -5  -4    0.16    0.40
   5  -5  -4   -0.32    0.21
   5  -5  -4    0.69    0.40
  -7   5   5    1.03    0.63
  -7   5   5    0.74    0.70
  -7   5   5    0.92    0.60
  -7   5   5    0.34    0.69
  -7   5   5    0.91    0.36
   7  -5  -5   -0.69    0.44
   7  -5  -5    0.55    0.38
   7  -5  -5    1.47    0.68
   7  -5  -5    0.10    0.54
  -9   5   6   -0.13    0.85
  -9   5   6   -0.76    1.16
  -9   5   6    0.45    0.77
  -9   5   6   -1.15    0.73
   9  -5  -6    0.45    0.74
   9  -5  -6    2.06    1.26
   6   6  -2    0.01    0.94
   6   6  -2    0.76    0.82
   6   6  -2    0.28    1.05
  -6  -6   2    0.49    0.94
  -6  -6   2    0.83    0.99
  -6  -6   2    1.50    1.11
   4   6  -1    1.16    0.84
   4   6  -1    1.04    0.70
   4   6  -1    0.25    0.70
   4   6  -1    1.22    0.85
  -4  -6   1    0.29    0.59
  -4  -6   1   -0.31    0.55
  -4  -6   1    1.29    0.82
  -4  -6   1    0.25    0.70
   2   6   0   11.39    1.29
   2   6   0   11.57    1.29
   2   6   0    9.94    0.71
   2   6   0    9.50    1.09
  -2  -6   0   11.18    0.75
  -2  -6   0   12.33    1.29
  -2  -6   0   10.89    1.24
  -2  -6   0    9.55    1.04
  -2  -6   0    9.98    1.22
   0   6   1   25.22    1.91
   0   6   1   24.21    1.74
   0   6   1   23.92    1.65
   0   6   1   26.65    1.67
   0   6   1   25.32    1.78
   0  -6  -1   24.94    1.62
   0  -6  -1   24.14    1.76
   0  -6  -1   24.69    1.93
   0  -6  -1   24.74    1.91
   0  -6  -1   22.88    1.64
  -2   6   2    4.77    0.94
  -2   6   2    4.43    0.74
  -2   6   2    3.91    0.68
  -2   6   2    3.61    0.81
  -2   6   2    3.44    0.72
  -2   6   2    2.93    0.37
   2  -6  -2    2.83    0.39
   2  -6  -2    3.41    0.85
   2  -6  -2    2.96    0.38
   2  -6  -2    4.13    0.79
   2  -6  -2    3.74    0.86
   2  -6  -2    2.79    0.44
   2  -6  -2    3.44    0.82
  -4   6   3    5.99    0.88
  -4   6   3    6.11    1.09
  -4   6   3    6.53    0.86
  -4   6   3    6.00    0.77
  -4   6   3    5.48    0.74
   4  -6  -3    5.78    0.61
   4  -6  -3    7.00    0.78
   4  -6  -3    6.56    0.92
   4  -6  -3    6.71    0.89
  -6   6   4    0.47    0.49
  -6   6   4    0.69    0.47
  -6   6   4    0.60    0.32
  -6   6   4    0.25    0.50
  -6   6   4    1.12    0.69
   6  -6  -4    0.83    0.31
   6  -6  -4    0.27    0.25
   6  -6  -4    1.06    0.65
   6  -6  -4    0.45    0.45
   6  -6  -4    1.52    0.73
  -8   6   5    5.17    1.31
  -8   6   5    3.13    0.99
  -8   6   5    4.08    1.20
  -8   6   5    2.22    0.52
   8  -6  -5    3.82    1.18
   8  -6  -5    4.28    1.16
   5   7  -2    2.04    0.90
   5   7  -2    1.93    1.04
  -5  -7   2    1.45    1.13
  -5  -7   2    0.79    1.06
   3   7  -1    7.74    1.69
   3   7  -1    8.60    1.62
   3   7  -1    7.17    1.42
   3   7  -1    6.99    1.30
  -3  -7   1    6.20    1.30
  -3  -7   1    7.54    1.21
  -3  -7   1    6.68    1.69
  -3  -7   1    7.59    1.50
   1   7   0    4.54    0.55
   1   7   0    7.07    1.29
   1   7   0    6.18    1.08
   1   7   0    7.73    1.37
   1   7   0    5.60    0.56
  -1  -7   0    7.58    1.32
  -1  -7   0    6.45    1.12
  -1  -7   0    6.65    0.66
  -1  -7   0    7.15    1.29
  -1  -7   0    4.84    0.81
  -1   7   1    1.40    0.50
  -1   7   1    0.93    0.42
  -1   7   1    1.22    0.49
  -1   7   1    0.81    0.59
  -1   7   1    0.95    0.53
  -1   7   1    1.37    0.48
   1  -7  -1    0.86    0.49
   1  -7  -1    0.93    0.48
   1  -7  -1    1.18    0.46
   1  -7  -1    1.55    0.68
   1  -7  -1    0.88    0.44
  -3   7   2    0.52    0.34
  -3   7   2    0.53    0.45
  -3   7   2    0.76    0.35
  -3   7   2    0.31    0.48
  -3   7   2    1.12    0.60
   3  -7  -2    1.41    0.61
   3  -7  -2    0.30    0.19
   3  -7  -2    0.53    0.54
  -5   7   3    3.06    0.72
  -5   7   3    4.21    0.82
  -5   7   3    3.30    1.01
  -5   7   3    3.56    0.98
   5  -7  -3    3.57    0.99
   5  -7  -3    4.22    0.98
   5  -7  -3    4.28    0.76
  -7   7   4    2.01    0.69
  -7   7   4    2.03    0.89
  -7   7   4    1.36    0.78
  -7   7   4    1.52    0.83
   7  -7  -4    2.07    0.83
   7  -7  -4    3.21    1.02
  -9   7   5    1.56    0.90
  -9   7   5    3.34    2.08
  -9   7   5    2.06    1.02
   9  -7  -5   -0.10    0.65
   9  -7  -5    1.50    1.02
   4   8  -2    1.90    0.98
   4   8  -2    1.02    0.99
   4   8  -2   -1.38    0.70
  -4  -8   2    0.95    0.76
  -4  -8   2   -0.58    0.56
  -4  -8   2    2.27    1.19
   2   8  -1   -0.45    0.38
   2   8  -1    0.22    0.53
   2   8  -1    0.45    0.67
   2   8  -1   -0.33    0.57
  -2  -8   1    0.74    0.60
  -2  -8   1    0.06    0.62
  -2  -8   1    0.24    0.73
  -2  -8   1   -0.05    0.64
   0   8   0    8.66    1.00
   0   8   0    9.79    0.93
   0   8   0    6.16    1.21
   0   8   0    8.36    0.97
   0   8   0    9.37    0.86
   0  -8   0    8.94    1.10
   0  -8   0    9.03    1.25
   0  -8   0   10.52    1.30
  -2   8   1    6.53    0.85
  -2   8   1    6.96    0.98
  -2   8   1    6.72    0.79
  -2   8   1    5.17    0.72
  -2   8   1    6.29    0.88
   2  -8  -1    8.62    1.46
   2  -8  -1    5.52    0.71
   2  -8  -1    8.73    1.43
   2  -8  -1    7.51    1.32
  -4   8   2    1.39    0.55
  -4   8   2    0.95    0.68
  -4   8   2    1.39    0.54
  -4   8   2    1.87    0.73
   4  -8  -2    0.40    0.65
   4  -8  -2    0.60    0.62
   4  -8  -2    2.15    0.68
   4  -8  -2    1.18    0.23
  -6   8   3   -0.38    0.58
  -6   8   3    0.24    0.48
  -6   8   3    0.42    0.54
  -6   8   3    0.17    0.39
   6  -8  -3   -0.02    0.49
   6  -8  -3   -0.11    0.70
   6  -8  -3    0.50    0.40
  -8   8   4    0.78    0.93
  -8   8   4    1.40    0.72
  -8   8   4    0.66    0.84
   8  -8  -4    0.39    0.79
   8  -8  -4    0.35    0.89
   3   9  -2    1.43    0.70
   3   9  -2    0.84    0.96
  -3  -9   2    5.94    1.50
  -3  -9   2   -1.80    0.85
   1   9  -1    0.38    0.50
   1   9  -1    1.43    0.77
   1   9  -1    0.51    0.57
  -1  -9   1    2.40    0.94
  -1  -9   1    3.00    1.04
  -1   9   0   10.09    1.14
  -1   9   0    8.98    1.09
  -1   9   0   11.38    1.07
  -1   9   0   11.17    1.34
  -1   9   0   10.35    1.22
   1  -9   0   11.07    1.16
   1  -9   0   10.07    1.34
  -3   9   1    0.83    0.54
  -3   9   1   -0.17    0.49
  -3   9   1    0.33    0.42
  -3   9   1    0.42    0.52
  -3   9   1    0.13    0.41
   3  -9  -1   -0.55    0.48
   3  -9  -1    0.23    0.59
   3  -9  -1   -0.40    0.36
   3  -9  -1    0.13    0.64
  -5   9   2    6.75    1.62
  -5   9   2    5.86    1.26
  -5   9   2    5.16    1.02
  -5   9   2    6.67    0.87
   5  -9  -2    9.05    1.55
   5  -9  -2    3.75    1.07
   5  -9  -2    5.88    1.11
  -7   9   3   -0.56    0.78
  -7   9   3    1.04    0.55
  -7   9   3    0.32    1.08
   7  -9  -3   -0.21    0.70
   7  -9  -3    0.45    0.43
   7  -9  -3    0.58    1.01
   2  10  -2    0.33    0.85
   2  10  -2    1.15    1.11
   2  10  -2    0.00    0.68
  -2 -10   2   -0.75    0.60
  -2 -10   2   -1.40    0.91
  -2 -10   2   -1.72    0.99
   0  10  -1    1.69    0.81
   0  10  -1    2.83    0.98
   0  10  -1    2.91    0.63
   0  10  -1    3.79    0.92
   0 -10   1    3.22    1.08
   0 -10   1    2.52    0.61
   0 -10   1    3.76    1.22
  -2  10   0    3.95    0.87
  -2  10   0    3.82    1.08
  -2  10   0    3.77    0.89
  -2  10   0    2.95    0.83
  -2  10   0    3.47    0.78
   2 -10   0    3.84    0.97
   2 -10   0    4.69    1.22
   2 -10   0    3.71    1.24
   2 -10   0    2.95    1.00
  -4  10   1    0.15    0.43
  -4  10   1    0.00    0.56
  -4  10   1   -0.39    0.59
  -4  10   1    0.06    0.51
   4 -10  -1   -0.33    0.39
   4 -10  -1   -0.51    0.47
   4 -10  -1    0.49    0.62
   4 -10  -1   -0.84    0.61
   4 -10  -1   -0.52    0.37
  -6  10   2    1.11    0.92
  -6  10   2   -1.35    0.76
  -6  10   2    1.71    0.91
  -6  10   2    0.39    0.47
   6 -10  -2    0.80    0.73
   6 -10  -2   -0.15    0.61
   6 -10  -2   -0.43    1.00
  -1  11  -1    3.47    1.00
  -1  11  -1    5.10    1.34
  -1  11  -1    5.58    1.02
   1 -11   1    6.43    1.72
   1 -11   1    4.61    1.14
  -3  11   0    0.48    0.77
  -3  11   0    1.82    0.75
  -3  11   0    1.23    0.81
  -3  11   0    1.59    0.75
  -3  11   0    0.76    0.53
   3 -11   0   -0.29    0.58
   3 -11   0    3.02    1.11
   3 -11   0    3.04    1.02
   3 -11   0    0.40    0.77
  -5  11   1   -0.86    0.75
  -5  11   1    0.47    0.70
  -5  11   1   -1.47    0.77
  -5  11   1   -0.22    0.44
   5 -11  -1    0.55    0.68
   5 -11  -1   -0.98    0.75
   5 -11  -1    0.08    0.66
  -4  12   0   -0.52    0.84
   3 -10   8    1.43    0.96
   3 -10   8    1.00    0.73
   3 -10   8    0.42    0.76
   3 -10   8    1.47    0.82
   3 -10   8    0.63    0.93
   3 -10   8    1.71    1.01
  -3  10  -8   -0.46    0.77
  -3  10  -8    0.86    0.37
  -3  10  -8    0.71    0.74
   6  -9   6    0.49    0.64
   6  -9   6    2.09    1.07
   6  -9   6    0.88    0.62
   6  -9   6    0.92    1.06
   6  -9   6    0.48    0.66
  -6   9  -6   -0.07    0.53
  -6   9  -6    0.98    0.92
  -6   9  -6    0.34    0.65
  -6   9  -6    1.64    0.55
   4  -9   7   -0.64    0.50
   4  -9   7   -0.41    0.62
   4  -9   7    1.05    0.76
   4  -9   7   -0.24    0.52
   4  -9   7    0.01    0.60
   4  -9   7    0.57    0.61
  -4   9  -7    0.24    0.71
  -4   9  -7    0.08    0.30
  -4   9  -7    0.11    0.66
  -4   9  -7    0.12    0.29
   2  -9   8    0.86    0.68
   2  -9   8    0.81    0.82
   2  -9   8    1.75    0.97
   2  -9   8    1.46    0.74
   2  -9   8    2.10    0.80
  -2   9  -8    1.22    0.75
  -2   9  -8    1.37    0.85
  -2   9  -8    1.01    0.37
  -2   9  -8    1.33    0.47
  -2   9  -8    1.33    0.61
   0  -9   9   -0.33    0.82
   0  -9   9    0.27    0.64
   0  -9   9   -0.08    0.56
   0  -9   9   -0.53    0.58
   0   9  -9   -1.21    0.71
   0   9  -9   -0.05    0.54
   0   9  -9   -0.13    0.73
   0   9  -9    0.47    0.49
   7  -8   5    0.36    0.54
   7  -8   5    1.18    0.79
   7  -8   5    0.45    0.89
   7  -8   5    1.23    1.16
  -7   8  -5    1.79    0.86
  -7   8  -5    1.30    0.70
  -7   8  -5    0.90    1.25
  -7   8  -5    0.63    0.71
  -7   8  -5    1.39    0.72
   5  -8   6    1.45    0.61
   5  -8   6    0.65    0.69
   5  -8   6    2.98    0.97
   5  -8   6    0.68    0.70
   5  -8   6    3.22    1.01
  -5   8  -6    1.54    0.72
  -5   8  -6    1.36    0.57
  -5   8  -6    2.39    0.60
   3  -8   7    0.32    0.57
   3  -8   7    0.57    0.55
   3  -8   7    1.10    0.77
   3  -8   7    0.63    0.53
   3  -8   7    1.19    0.77
  -3   8  -7    0.92    0.69
  -3   8  -7    0.68    0.33
  -3   8  -7    0.69    0.32
  -3   8  -7    1.10    0.62
  -3   8  -7    0.75    0.57
   1  -8   8   -0.13    0.47
   1  -8   8   -0.22    0.51
   1  -8   8   -0.83    0.60
   1  -8   8   -0.16    0.62
  -1   8  -8    0.41    0.53
  -1   8  -8   -0.01    0.47
  -1   8  -8    0.35    0.32
  -1  -8   9    3.70    1.23
  -1  -8   9    1.56    0.79
  -1  -8   9    2.96    0.69
  -1  -8   9    0.55    0.95
   1   8  -9    1.88    0.76
   1   8  -9    0.50    0.83
   1   8  -9    1.85    0.99
   1   8  -9    2.30    0.71
   1   8  -9    2.23    0.82
   8  -7   4    0.03    0.71
   8  -7   4   -0.48    0.85
   8  -7   4   -0.23    0.93
  -8   7  -4    0.09    0.58
  -8   7  -4   -0.16    1.02
  -8   7  -4   -0.34    0.73
   6  -7   5    4.45    0.60
   6  -7   5    6.64    1.19
   6  -7   5    8.57    1.50
   6  -7   5    4.16    0.54
   6  -7   5    5.80    1.29
  -6   7  -5    6.45    0.86
  -6   7  -5    5.61    1.21
  -6   7  -5    6.69    1.47
  -6   7  -5    6.29    0.85
  -6   7  -5    6.42    0.87
   4  -7   6    0.78    0.52
   4  -7   6    1.94    0.83
   4  -7   6    2.50    0.80
  -4   7  -6    1.37    0.44
  -4   7  -6    1.88    0.78
  -4   7  -6    2.26    0.65
  -4   7  -6    2.18    0.54
   2  -7   7    0.56    0.68
   2  -7   7    1.52    0.73
   2  -7   7    2.56    0.65
  -2   7  -7    2.21    0.43
  -2   7  -7    2.01    0.82
  -2   7  -7    1.62    0.79
  -2   7  -7    1.07    0.41
  -2   7  -7    0.93    0.61
   0  -7   8   -0.20    0.50
   0  -7   8   -0.04    0.50
   0  -7   8    0.93    0.74
   0   7  -8    0.69    0.41
   0   7  -8   -0.08    0.34
   0   7  -8    1.27    0.78
   0   7  -8    0.96    0.70
   0   7  -8    0.29    0.38
  -2  -7   9    1.27    0.94
  -2  -7   9    0.31    0.77
  -2  -7   9    1.51    0.54
  -2  -7   9    0.92    0.43
   2   7  -9   -0.09    0.62
   2   7  -9    1.15    0.78
   2   7  -9    0.34    0.64
   2   7  -9    0.92    0.83
   2   7  -9    0.61    0.58
   7  -6   4    1.62    0.66
   7  -6   4    0.35    0.57
   7  -6   4   -0.20    0.70
  -7   6  -4    0.26    0.78
  -7   6  -4    0.02    0.44
  -7   6  -4    1.53    0.68
  -7   6  -4    0.52    0.60
  -7   6  -4   -0.32    0.73
   5  -6   5    6.48    1.63
   5  -6   5    4.33    0.52
   5  -6   5    9.16    1.24
   5  -6   5    7.90    1.19
   5  -6   5    4.43    0.56
  -5   6  -5    6.91    1.11
  -5   6  -5    6.74    0.87
  -5   6  -5    5.27    1.13
  -5   6  -5    4.96    0.69
  -5   6  -5    6.17    1.32
   3  -6   6   27.97    2.13
   3  -6   6   32.46    2.47
   3  -6   6   33.66    2.05
   3  -6   6   31.82    2.07
   3  -6   6   31.01    2.42
   3  -6   6   28.62    2.03
  -3   6  -6   35.70    1.99
  -3   6  -6   31.63    2.10
  -3   6  -6   32.04    2.45
  -3   6  -6   30.17    1.88
  -3   6  -6   32.44    2.33
   1  -6   7   15.13    1.63
   1  -6   7   19.04    1.49
   1  -6   7   14.66    1.21
   1  -6   7   18.59    1.59
  -1   6  -7   19.88    1.72
  -1   6  -7   15.96    1.20
  -1   6  -7   18.01    1.67
  -1   6  -7   14.70    1.19
  -1   6  -7   17.31    1.51
  -1   6  -7   15.21    1.26
  -1  -6   8    2.30    0.64
  -1  -6   8    0.88    0.70
  -1  -6   8    1.35    0.55
  -1  -6   8    1.24    0.57
   1   6  -8    1.72    0.76
   1   6  -8    1.94    0.76
   1   6  -8    1.38    0.63
   1   6  -8    1.39    0.54
   1   6  -8    2.12    0.57
   1   6  -8    4.40    0.86
  -3  -6   9    1.23    0.48
  -3  -6   9    0.35    0.84
  -3  -6   9    0.73    0.81
  -3  -6   9    1.43    0.59
   3   6  -9    1.11    0.59
   3   6  -9    2.89    1.01
   3   6  -9    1.12    0.64
   3   6  -9    0.45    0.84
   8  -5   3   -1.37    0.67
   8  -5   3   -1.17    0.79
   8  -5   3   -0.70    0.63
  -8   5  -3   -0.45    0.69
  -8   5  -3   -0.44    0.64
  -8   5  -3    0.36    0.82
   6  -5   4    6.13    0.89
   6  -5   4    5.41    1.30
   6  -5   4    6.66    0.92
   6  -5   4    6.23    1.25
  -6   5  -4    4.98    0.96
  -6   5  -4    4.18    0.77
  -6   5  -4    3.71    1.02
  -6   5  -4    3.63    0.98
  -6   5  -4    6.20    1.16
   4  -5   5   13.20    1.45
   4  -5   5   11.69    0.88
   4  -5   5   12.89    1.35
   4  -5   5   12.48    1.07
   4  -5   5   10.91    0.88
  -4   5  -5   11.72    1.02
  -4   5  -5   12.24    1.00
  -4   5  -5   13.18    1.37
   2  -5   6   -0.21    0.27
   2  -5   6   -0.22    0.43
   2  -5   6   -0.48    0.19
   2  -5   6   -0.32    0.40
   2  -5   6    0.27    0.30
  -2   5  -6    0.34    0.28
  -2   5  -6   -0.25    0.41
  -2   5  -6   -0.09    0.28
  -2   5  -6    0.30    0.43
  -2   5  -6   -0.08    0.16
   0  -5   7    2.07    0.71
   0  -5   7    2.48    0.60
   0  -5   7    2.68    0.60
   0  -5   7    1.65    0.58
   0  -5   7    2.27    0.50
   0   5  -7    1.30    0.49
   0   5  -7    1.91    0.67
   0   5  -7    1.94    0.49
   0   5  -7    2.49    0.76
   0   5  -7    1.75    0.62
   0   5  -7    2.13    0.64
   0   5  -7    2.13    0.49
  -2  -5   8    4.44    1.09
  -2  -5   8    3.16    0.68
  -2  -5   8    3.49    0.63
   2   5  -8    3.81    0.94
   2   5  -8    2.46    0.73
   2   5  -8    2.97    0.64
   2   5  -8    3.17    0.81
   2   5  -8    2.90    0.78
   2   5  -8    4.22    0.76
  -4  -5   9    0.31    0.39
  -4  -5   9    0.35    0.80
  -4  -5   9   -0.84    0.66
   4   5  -9   -0.68    0.70
   4   5  -9    0.06    0.45
   4   5  -9   -0.17    0.50
   4   5  -9   -0.09    0.51
   4   5  -9   -0.85    0.77
   4   5  -9    0.92    0.64
   9  -4   2    1.96    1.17
   9  -4   2    3.38    1.11
   9  -4   2    1.49    1.00
  -9   4  -2    0.89    1.18
  -9   4  -2   -0.33    0.87
   7  -4   3    0.34    0.50
   7  -4   3    0.39    0.61
   7  -4   3    0.51    0.71
  -7   4  -3    0.45    0.68
  -7   4  -3    0.69    0.79
  -7   4  -3    0.41    0.37
  -7   4  -3    0.62    0.55
   5  -4   4    1.76    0.58
   5  -4   4    2.29    0.75
   5  -4   4    2.41    0.69
   5  -4   4    1.42    0.65
  -5   4  -4    1.55    0.55
  -5   4  -4    2.38    0.64
  -5   4  -4    2.20    0.70
  -5   4  -4    2.16    0.62
  -5   4  -4    1.55    0.63
  -5   4  -4    1.89    0.57
   3  -4   5    0.35    0.27
   3  -4   5    0.03    0.34
   3  -4   5    0.56    0.48
   3  -4   5    0.52    0.24
   3  -4   5    0.05    0.32
   3  -4   5    0.31    0.20
  -3   4  -5    0.04    0.22
  -3   4  -5    0.35    0.34
  -3   4  -5    0.56    0.28
  -3   4  -5    0.46    0.24
  -3   4  -5   -0.01    0.32
   1  -4   6    9.65    0.94
   1  -4   6   10.30    0.76
   1  -4   6   10.06    1.00
   1  -4   6   10.03    1.03
   1  -4   6   10.58    0.76
   1  -4   6   10.23    1.08
  -1   4  -6   10.54    1.08
  -1   4  -6    9.82    1.00
  -1   4  -6    9.78    1.06
  -1   4  -6   11.46    0.89
  -1   4  -6   11.10    0.86
  -1   4  -6   10.05    0.75
  -1   4  -6   10.63    0.97
  -1  -4   7    1.83    0.39
  -1  -4   7    2.34    0.53
  -1  -4   7    1.63    0.44
  -1  -4   7    1.17    0.47
  -1  -4   7    1.95    0.74
   1   4  -7    1.82    0.67
   1   4  -7    1.31    0.54
   1   4  -7    2.29    0.51
   1   4  -7    1.82    0.49
   1   4  -7    1.91    0.52
   1   4  -7    2.01    0.72
  -3  -4   8   40.04    2.52
  -3  -4   8   42.02    2.48
  -3  -4   8   40.09    2.57
  -3  -4   8   44.28    3.08
   3   4  -8   37.32    2.90
   3   4  -8   38.73    2.66
   3   4  -8   41.24    2.98
   3   4  -8   39.14    2.73
   3   4  -8   41.88    2.85
  -5  -4   9    0.04    0.69
  -5  -4   9    0.26    0.76
  -5  -4   9   -0.02    0.44
  -5  -4   9   -0.25    0.36
   5   4  -9   -0.16    0.52
   5   4  -9    0.36    0.73
   5   4  -9    0.45    0.62
   5   4  -9    0.59    0.64
   8  -3   2    2.30    0.93
   8  -3   2    2.81    1.01
   8  -3   2    3.04    0.96
  -8   3  -2    2.00    1.00
  -8   3  -2    2.35    0.97
   6  -3   3    0.57    0.49
   6  -3   3    0.98    0.47
   6  -3   3    1.02    0.57
   6  -3   3    0.61    0.46
   6  -3   3    0.38    0.43
  -6   3  -3    0.60    0.63
  -6   3  -3    0.86    0.51
  -6   3  -3    0.27    0.35
  -6   3  -3    0.72    0.65
  -6   3  -3    0.08    0.45
   4  -3   4    0.90    0.56
   4  -3   4    0.87    0.54
   4  -3   4    0.28    0.23
   4  -3   4    0.02    0.30
  -4   3  -4    0.26    0.27
  -4   3  -4    0.98    0.37
  -4   3  -4    0.34    0.33
  -4   3  -4    0.16    0.26
  -4   3  -4    0.76    0.55
   2  -3   5    5.37    0.74
   2  -3   5    5.50    0.38
   2  -3   5    5.54    0.38
   2  -3   5    5.84    0.47
   2  -3   5    5.38    1.07
   2  -3   5    5.07    0.65
   2  -3   5    6.41    0.56
  -2   3  -5    2.90    1.03
  -2   3  -5    5.74    0.71
  -2   3  -5    5.41    0.55
  -2   3  -5    5.80    0.54
   0  -3   6   15.08    0.95
   0  -3   6   13.45    1.16
   0  -3   6   16.58    1.30
   0  -3   6   15.14    1.20
   0  -3   6   15.39    1.02
   0  -3   6   14.48    0.95
   0   3  -6   14.67    0.95
   0   3  -6   14.55    1.09
   0   3  -6   15.14    1.27
   0   3  -6   15.82    1.24
  -2  -3   7   13.03    1.16
  -2  -3   7   13.57    1.11
  -2  -3   7   14.90    1.39
   2   3  -7   10.33    1.10
   2   3  -7   12.48    1.24
   2   3  -7   12.30    1.30
   2   3  -7   13.32    1.12
   2   3  -7   13.65    1.21
   2   3  -7   13.10    1.06
  -4  -3   8   15.49    1.57
  -4  -3   8   13.48    1.36
  -4  -3   8   15.17    1.27
  -4  -3   8   15.62    1.23
   4   3  -8   14.43    1.48
   4   3  -8   16.14    1.44
   4   3  -8   15.65    1.54
   4   3  -8   14.14    1.45
   4   3  -8   13.60    1.26
   4   3  -8   15.57    1.56
  -6  -3   9   -0.01    0.63
  -6  -3   9    0.84    0.47
  -6  -3   9    0.85    0.74
   6   3  -9    0.33    0.66
   6   3  -9    0.65    0.66
   6   3  -9    0.13    0.65
   6   3  -9    0.11    0.79
   9  -2   1   -0.90    0.84
   9  -2   1    2.50    1.05
  -9   2  -1    0.93    1.05
  -9   2  -1    1.31    1.24
   7  -2   2    4.11    0.98
   7  -2   2    5.53    1.15
   7  -2   2    4.93    1.19
   7  -2   2    2.82    0.61
   7  -2   2    5.06    0.97
  -7   2  -2    3.79    0.71
  -7   2  -2    5.23    1.14
  -7   2  -2    4.34    1.32
  -7   2  -2    2.88    1.15
   5  -2   3    0.59    0.42
   5  -2   3    0.19    0.37
   5  -2   3    0.83    0.36
   5  -2   3    1.53    0.53
  -5   2  -3    0.94    0.44
  -5   2  -3    1.00    0.63
  -5   2  -3    0.07    0.39
  -5   2  -3    0.71    0.44
   3  -2   4   19.16    1.35
   3  -2   4   18.47    1.49
   3  -2   4   19.19    1.22
   3  -2   4   16.85    1.31
  -3   2  -4   17.64    1.34
  -3   2  -4   18.45    1.18
   1  -2   5   44.11    2.79
   1  -2   5   46.35    2.79
   1  -2   5   45.09    2.86
   1  -2   5   48.02    2.54
   1  -2   5   49.15    2.55
   1  -2   5   44.24    2.57
   1  -2   5   41.01    2.71
  -1   2  -5   47.31    2.66
  -1   2  -5   46.92    2.83
  -1   2  -5   48.42    2.61
  -1   2  -5   46.36    2.86
  -1   2  -5   45.85    2.79
  -1   2  -5   45.08    2.60
  -1  -2   6   34.09    2.48
  -1  -2   6   44.11    2.27
  -1  -2   6   34.52    2.45
  -1  -2   6   36.42    2.34
  -1  -2   6   36.64    2.48
  -1  -2   6   36.75    2.37
   1   2  -6   44.26    2.28
   1   2  -6   39.33    2.58
   1   2  -6   46.99    2.55
   1   2  -6   47.32    2.65
   1   2  -6   48.28    2.57
  -3  -2   7   11.01    1.01
  -3  -2   7    9.15    0.94
  -3  -2   7   10.52    0.96
  -3  -2   7   10.57    1.01
  -3  -2   7   10.09    1.09
   3   2  -7   12.87    1.18
   3   2  -7   11.10    1.17
   3   2  -7    8.58    0.99
   3   2  -7   11.32    1.03
   3   2  -7   10.55    1.10
   3   2  -7   10.71    1.14
  -5  -2   8    0.99    0.69
  -5  -2   8    0.75    0.66
  -5  -2   8    0.84    0.59
  -5  -2   8    0.51    0.47
   5   2  -8    0.76    0.47
   5   2  -8    1.04    0.71
   5   2  -8    1.95    0.77
   5   2  -8    0.85    0.71
   5   2  -8    0.52    0.69
   5   2  -8    1.12    0.64
  -7  -2   9   -0.48    0.79
  -7  -2   9    0.59    0.82
  -7  -2   9   -0.02    0.68
  -7  -2   9    0.34    0.67
   7   2  -9   -0.68    0.71
   7   2  -9   -0.18    0.75
   7   2  -9   -1.14    0.73
   8  -1   1    2.15    0.97
   8  -1   1    1.25    0.72
   8  -1   1    0.91    0.71
  -8   1  -1   -0.25    0.49
  -8   1  -1    1.45    0.86
  -8   1  -1   -0.23    0.78
   6  -1   2    6.37    0.77
   6  -1   2    9.06    1.03
   6  -1   2    6.96    0.99
   6  -1   2    7.56    0.95
  -6   1  -2    7.35    1.03
  -6   1  -2    6.79    0.82
  -6   1  -2    6.47    1.21
  -6   1  -2    8.71    1.54
   4  -1   3   49.24    3.00
   4  -1   3   53.12    3.07
   4  -1   3   53.33    3.30
   4  -1   3   51.64    3.19
   4  -1   3   53.36    3.07
  -4   1  -3   47.90    3.16
  -4   1  -3   50.39    3.00
  -4   1  -3   52.34    3.29
  -4   1  -3   52.72    3.24
   2  -1   4   23.97    1.34
   2  -1   4   23.91    1.63
   2  -1   4   25.72    1.71
   2  -1   4   22.25    1.69
   2  -1   4   24.94    1.78
   2  -1   4   25.92    1.58
  -2   1  -4   25.68    1.36
  -2   1  -4   21.24    1.67
  -2   1  -4   25.74    1.78
  -2   1  -4   25.31    1.40
  -2   1  -4   25.24    1.66
  -2   1  -4   24.48    1.64
   0  -1   5   59.14    3.46
   0  -1   5   58.85    3.52
   0  -1   5   68.27    3.58
   0  -1   5   63.29    3.36
   0  -1   5   63.10    3.38
   0  -1   5   63.02    3.38
   0  -1   5   58.68    3.46
   0   1  -5   57.52    3.48
   0   1  -5   61.54    3.43
   0   1  -5   60.96    3.50
   0   1  -5   63.08    3.40
   0   1  -5   58.80    3.46
  -2  -1   6   12.48    1.08
  -2  -1   6   14.27    1.14
  -2  -1   6   12.10    1.10
  -2  -1   6   13.41    1.07
  -2  -1   6   13.16    0.95
  -2  -1   6   11.65    1.02
  -2  -1   6   13.83    1.10
  -2  -1   6   13.02    1.12
  -2  -1   6   11.54    1.06
   2   1  -6   13.49    1.16
   2   1  -6   13.73    0.98
   2   1  -6   12.69    1.07
   2   1  -6   12.05    1.09
   2   1  -6   11.42    1.17
   2   1  -6   13.06    1.14
  -4  -1   7   14.95    1.35
  -4  -1   7   14.67    1.35
  -4  -1   7   14.84    1.25
  -4  -1   7   15.88    1.39
   4   1  -7   14.79    1.31
   4   1  -7   15.62    1.72
   4   1  -7   14.98    1.36
   4   1  -7   13.28    1.28
   4   1  -7   14.68    1.38
   4   1  -7   16.19    1.49
  -6  -1   8   -0.89    0.43
  -6  -1   8   -0.01    0.54
  -6  -1   8    0.43    0.38
  -6  -1   8   -0.16    0.45
  -6  -1   8    0.15    0.56
   6   1  -8    0.33    0.68
   6   1  -8   -0.84    0.49
   6   1  -8   -0.14    0.41
   6   1  -8    0.05    0.46
  -8  -1   9    0.46    0.99
  -8  -1   9   -0.73    0.67
  -8  -1   9    0.44    0.70
  -8  -1   9    0.31    1.00
   8   1  -9    0.26    0.95
   8   1  -9    0.35    1.05
   8   1  -9   -0.21    0.83
   7   0   1   24.30    2.10
   7   0   1   21.13    1.39
   7   0   1   21.42    1.92
   7   0   1   22.69    1.89
   7   0   1   22.25    1.95
  -7   0  -1   20.69    1.45
  -7   0  -1   20.15    1.97
  -7   0  -1   22.55    1.81
  -7   0  -1   24.91    2.19
  -7   0  -1   22.27    1.43
   5   0   2    0.99    0.57
   5   0   2    1.36    0.57
   5   0   2    1.46    0.57
  -5   0  -2    0.93    0.66
  -5   0  -2    1.43    0.33
  -5   0  -2    1.31    0.53
  -5   0  -2    0.98    0.46
  -5   0  -2    1.04    0.59
   3   0   3    7.92    0.98
   3   0   3    8.28    0.80
   3   0   3    6.73    0.80
   3   0   3    8.57    0.78
   3   0   3    8.98    0.94
   3   0   3    7.45    0.83
   3   0   3    8.40    0.83
   3   0   3    9.28    0.87
  -3   0  -3    9.00    0.88
  -3   0  -3    8.49    0.93
  -3   0  -3    9.19    0.87
  -3   0  -3    8.99    0.54
  -3   0  -3    7.32    0.83
  -3   0  -3    8.31    0.53
  -3   0  -3    8.29    0.76
  -3   0  -3    9.01    0.89
   1   0   4   18.74    1.36
   1   0   4   17.65    1.29
   1   0   4   17.46    1.01
   1   0   4   17.82    1.28
   1   0   4   18.05    1.10
   1   0   4   18.12    1.26
   1   0   4   17.58    1.23
   1   0   4   16.73    1.23
  -1   0  -4   16.90    1.23
  -1   0  -4   18.79    1.02
  -1   0  -4   17.79    1.10
  -1   0  -4   17.55    1.31
  -1   0  -4   17.93    1.29
  -1   0  -4   16.47    1.26
  -1   0  -4   16.91    1.32
  -1   0   5    7.13    0.74
  -1   0   5    5.33    0.48
  -1   0   5    5.39    0.62
   1   0  -5    7.06    0.66
   1   0  -5    7.39    0.57
   1   0  -5    6.37    0.68
   1   0  -5    5.48    0.65
   1   0  -5    7.11    0.70
   1   0  -5    6.21    0.68
  -3   0   6    1.84    0.52
  -3   0   6    2.67    0.60
  -3   0   6    1.35    0.54
  -3   0   6    2.72    0.57
  -3   0   6    1.67    0.44
  -3   0   6    1.43    0.46
  -3   0   6    2.26    0.51
  -3   0   6    1.93    0.56
   3   0  -6    1.88    0.64
   3   0  -6    1.72    0.47
   3   0  -6    1.82    0.58
   3   0  -6    1.93    0.55
   3   0  -6    1.98    0.56
   3   0  -6    1.88    0.53
  -5   0   7   13.43    1.30
  -5   0   7   13.93    1.28
  -5   0   7   11.99    1.22
  -5   0   7   16.49    1.44
   5   0  -7   11.38    1.30
   5   0  -7   12.39    1.33
   5   0  -7   14.56    1.36
   5   0  -7   13.85    1.37
  -7   0   8    0.31    0.64
  -7   0   8    0.54    0.63
  -7   0   8    0.46    0.64
  -7   0   8    0.51    0.60
  -7   0   8    1.17    0.66
   7   0  -8    0.10    0.68
   7   0  -8    0.52    0.53
   7   0  -8   -0.34    0.39
   7   0  -8   -0.11    0.49
   8   1   0   -0.45    0.66
   8   1   0    0.54    1.10
   8   1   0   -0.25    0.73
   8   1   0   -0.46    0.73
  -8  -1   0   -0.49    0.71
  -8  -1   0    0.81    0.90
  -8  -1   0   -0.86    0.60
   6   1   1   17.11    1.24
   6   1   1   16.91    1.54
   6   1   1   17.33    1.53
   6   1   1   16.36    1.66
   6   1   1   18.87    1.67
  -6  -1  -1   18.73    1.87
  -6  -1  -1   17.66    1.27
  -6  -1  -1   13.88    1.21
  -6  -1  -1   14.60    1.41
  -6  -1  -1   18.26    1.72
   4   1   2    4.91    0.83
   4   1   2    4.66    0.68
   4   1   2    5.19    0.72
   4   1   2    5.55    0.76
   4   1   2    5.87    0.97
   4   1   2    5.46    0.65
  -4  -1  -2    4.79    0.70
  -4  -1  -2    6.65    1.08
  -4  -1  -2    4.47    0.51
  -4  -1  -2    5.23    1.02
  -4  -1  -2    6.39    1.07
  -4  -1  -2    4.69    0.50
   2   1   3    3.92    0.69
   2   1   3    3.04    0.59
   2   1   3    3.68    0.70
   2   1   3    2.50    0.57
   2   1   3    3.92    0.71
   2   1   3    4.44    0.52
   2   1   3    3.68    0.67
  -2  -1  -3    5.12    0.63
  -2  -1  -3    3.60    0.66
  -2  -1  -3    2.53    0.37
  -2  -1  -3    5.56    0.63
  -2  -1  -3    3.50    0.45
  -2  -1  -3    5.85    0.71
  -2  -1  -3    3.88    0.40
   0   1   4   37.29    2.25
   0   1   4   37.85    2.31
   0   1   4   36.55    2.23
   0   1   4   37.84    2.17
   0   1   4   34.25    2.21
   0   1   4   38.37    2.14
   0  -1  -4   38.15    2.27
   0  -1  -4   38.09    2.02
   0  -1  -4   37.62    2.22
   0  -1  -4   35.83    2.16
   0  -1  -4   36.33    2.25
   0  -1  -4   35.30    2.12
   0  -1  -4   37.32    2.28
  -2   1   5   -0.09    0.18
  -2   1   5   -0.15    0.19
  -2   1   5   -0.09    0.21
  -2   1   5   -0.04    0.23
  -2   1   5    0.27    0.33
  -2   1   5    0.18    0.21
  -2   1   5    0.02    0.23
   2  -1  -5    0.12    0.26
   2  -1  -5    0.26    0.20
   2  -1  -5   -0.11    0.16
   2  -1  -5    0.02    0.28
   2  -1  -5   -0.11    0.17
   2  -1  -5   -0.05    0.17
   2  -1  -5    0.20    0.25
  -4   1   6   29.67    2.34
  -4   1   6   30.49    2.12
  -4   1   6   31.24    2.07
  -4   1   6   30.75    1.95
  -4   1   6   28.50    2.17
  -4   1   6   30.19    1.91
  -4   1   6   30.78    2.08
   4  -1  -6   29.10    2.08
   4  -1  -6   30.61    2.13
   4  -1  -6   29.67    1.95
   4  -1  -6   27.51    1.98
   4  -1  -6   30.16    1.94
   4  -1  -6   28.00    2.08
  -6   1   7    7.77    1.35
  -6   1   7    4.36    0.79
  -6   1   7    4.98    0.92
  -6   1   7    5.55    1.02
  -6   1   7    8.65    1.12
   6  -1  -7    5.86    1.24
   6  -1  -7    4.21    1.08
   6  -1  -7    4.68    0.99
   6  -1  -7    6.58    0.81
  -8   1   8    0.88    0.73
  -8   1   8   -0.12    0.77
  -8   1   8    2.15    0.97
   8  -1  -8    2.58    1.01
   8  -1  -8    1.44    0.90
   8  -1  -8    1.93    0.78
   7   2   0   -0.23    0.47
   7   2   0   -0.16    0.54
   7   2   0    0.05    0.55
   7   2   0    0.39    0.75
  -7  -2   0   -0.03    0.68
  -7  -2   0   -0.16    0.55
  -7  -2   0    0.02    0.55
   5   2   1   10.63    1.22
   5   2   1   11.08    1.27
   5   2   1    9.65    0.93
   5   2   1    9.59    0.98
   5   2   1   11.66    1.14
   5   2   1    9.65    1.05
  -5  -2  -1    8.89    0.92
  -5  -2  -1   11.46    1.35
  -5  -2  -1   10.98    1.28
  -5  -2  -1   12.89    1.20
  -5  -2  -1    9.71    0.98
   3   2   2    5.35    0.68
   3   2   2    5.02    0.68
   3   2   2    7.31    0.68
   3   2   2    7.24    0.76
   3   2   2    6.49    0.79
   3   2   2    5.10    0.70
   3   2   2    5.45    0.76
  -3  -2  -2    5.60    0.82
  -3  -2  -2    5.39    0.75
  -3  -2  -2    5.88    0.79
  -3  -2  -2    5.84    0.67
  -3  -2  -2    4.60    0.59
  -3  -2  -2    5.42    0.79
  -3  -2  -2    6.61    0.74
  -3  -2  -2    4.93    0.59
   1   2   3  186.78    9.60
   1   2   3  191.27    9.62
   1   2   3  184.06    9.45
   1   2   3  177.20    9.53
   1   2   3  212.11    9.71
   1   2   3  193.12    9.84
   1   2   3  188.12    9.59
   1   2   3  182.59    9.47
  -1  -2  -3  176.42    9.55
  -1  -2  -3  185.58    9.62
  -1  -2  -3  192.84    9.48
  -1  -2  -3  184.96    9.64
  -1  -2  -3  181.31    9.57
  -1  -2  -3  190.01    9.47
  -1  -2  -3  178.78    9.55
  -1  -2  -3  177.44    9.44
  -1   2   4  253.28   12.54
  -1   2   4  248.28   12.47
  -1   2   4  249.98   12.58
  -1   2   4  238.42   12.27
  -1   2   4  251.04   12.52
  -1   2   4  243.33   12.49
  -1   2   4  241.90   12.47
  -1   2   4  240.39   12.35
   1  -2  -4  241.85   12.46
   1  -2  -4  246.86   12.50
   1  -2  -4  241.77   12.34
   1  -2  -4  254.52   12.36
   1  -2  -4  256.01   12.49
   1  -2  -4  238.14   12.28
   1  -2  -4  253.94   12.57
  -3   2   5   10.26    0.75
  -3   2   5    9.25    0.97
  -3   2   5   10.66    1.07
  -3   2   5    9.66    0.84
  -3   2   5   11.09    0.98
  -3   2   5   10.15    0.95
  -3   2   5    9.04    0.91
  -3   2   5   10.39    1.01
  -3   2   5   10.24    0.75
   3  -2  -5    8.88    0.84
   3  -2  -5   11.32    0.98
   3  -2  -5    9.92    0.92
   3  -2  -5   11.50    1.01
   3  -2  -5   10.18    0.92
   3  -2  -5    9.23    1.00
  -5   2   6    0.26    0.36
  -5   2   6    0.08    0.36
  -5   2   6    0.00    0.29
  -5   2   6    0.08    0.45
  -5   2   6   -0.01    0.38
  -5   2   6    0.57    0.30
   5  -2  -6    0.36    0.41
   5  -2  -6    0.41    0.31
   5  -2  -6    0.54    0.35
   5  -2  -6    0.68    0.36
   5  -2  -6    1.53    0.60
  -7   2   7    3.30    0.88
  -7   2   7    2.37    0.88
  -7   2   7    1.81    0.63
  -7   2   7    3.11    0.89
  -7   2   7    1.68    0.64
  -7   2   7    1.94    0.54
   7  -2  -7    1.42    0.83
   7  -2  -7    2.27    0.84
   7  -2  -7    1.82    0.75
   7  -2  -7    1.15    0.48
  -9   2   8    0.24    1.09
  -9   2   8    1.79    1.04
  -9   2   8    2.76    1.24
  -9   2   8    2.92    1.06
   9  -2  -8   -0.16    0.98
   9  -2  -8    1.70    0.89
   6   3   0    1.34    0.78
   6   3   0    0.55    0.47
   6   3   0    1.69    0.54
   6   3   0    1.31    0.74
   6   3   0    0.82    0.59
   6   3   0    1.06    0.67
  -6  -3   0    0.36    0.77
  -6  -3   0    0.51    0.63
  -6  -3   0    0.51    0.70
   4   3   1    2.03    0.51
   4   3   1    0.71    0.39
   4   3   1    0.37    0.31
   4   3   1    0.66    0.42
   4   3   1    0.43    0.41
   4   3   1   -0.17    0.44
   4   3   1    1.02    0.49
  -4  -3  -1    0.06    0.39
  -4  -3  -1    0.72    0.49
  -4  -3  -1    0.41    0.39
  -4  -3  -1    0.10    0.34
  -4  -3  -1    0.74    0.49
   2   3   2    0.77    0.32
   2   3   2    1.51    0.48
   2   3   2    0.30    0.31
   2   3   2    0.47    0.31
  -2  -3  -2    1.26    0.40
  -2  -3  -2    1.11    0.28
  -2  -3  -2    1.19    0.34
   0   3   3   26.83    1.80
   0   3   3   28.03    1.86
   0   3   3   27.74    1.85
   0   3   3   29.60    1.75
   0   3   3   31.63    1.88
   0   3   3   26.84    1.98
   0   3   3   28.71    1.87
   0   3   3   29.37    1.84
   0  -3  -3   28.23    1.85
   0  -3  -3   27.53    1.84
   0  -3  -3   26.96    1.89
   0  -3  -3   29.55    1.81
   0  -3  -3   28.26    1.75
   0  -3  -3   29.60    1.86
   0  -3  -3   27.88    1.80
  -2   3   4   -0.07    0.21
  -2   3   4    0.48    0.30
  -2   3   4   -0.39    0.26
  -2   3   4    0.00    0.25
  -2   3   4   -0.03    0.09
  -2   3   4    0.05    0.36
  -2   3   4    0.24    0.31
   2  -3  -4   -0.09    0.24
   2  -3  -4    0.51    0.37
   2  -3  -4    0.02    0.26
   2  -3  -4    0.09    0.21
   2  -3  -4    0.19    0.11
   2  -3  -4    0.09    0.22
   2  -3  -4   -0.24    0.28
   2  -3  -4    0.16    0.24
  -4   3   5    8.16    1.00
  -4   3   5    8.74    0.64
  -4   3   5    8.41    0.95
  -4   3   5    7.26    0.84
  -4   3   5    7.00    0.86
  -4   3   5    7.28    0.73
   4  -3  -5    7.68    0.96
   4  -3  -5    8.11    0.86
   4  -3  -5    7.25    0.73
   4  -3  -5    7.41    0.87
  -6   3   6    8.01    1.28
  -6   3   6    8.12    1.13
  -6   3   6    9.07    1.23
  -6   3   6    8.80    1.16
  -6   3   6    7.96    0.87
  -6   3   6    7.14    0.75
   6  -3  -6   10.17    1.17
   6  -3  -6    9.81    1.19
   6  -3  -6    8.10    1.05
   6  -3  -6    7.72    0.83
   6  -3  -6    6.69    0.71
  -8   3   7    1.31    0.82
  -8   3   7   -0.46    0.57
  -8   3   7    0.10    0.66
  -8   3   7   -0.11    0.72
   8  -3  -7    0.97    0.81
   8  -3  -7   -0.26    0.65
   8  -3  -7   -0.87    0.70
   7   4  -1    7.34    1.54
   7   4  -1    5.95    1.93
  -7  -4   1    2.85    1.56
  -7  -4   1    3.56    1.31
  -7  -4   1    5.95    1.36
   5   4   0    9.10    0.91
   5   4   0   10.41    0.90
   5   4   0   12.20    1.36
   5   4   0    9.44    1.26
   5   4   0   10.25    1.17
  -5  -4   0    9.74    1.25
  -5  -4   0   10.44    1.24
  -5  -4   0    9.04    1.29
  -5  -4   0   11.12    1.32
   3   4   1    0.46    0.30
   3   4   1    0.66    0.29
   3   4   1    0.15    0.26
   3   4   1    0.21    0.33
   3   4   1    0.26    0.45
   3   4   1    0.00    0.33
   3   4   1    0.42    0.45
   3   4   1    0.53    0.42
  -3  -4  -1    0.06    0.37
  -3  -4  -1   -0.09    0.34
  -3  -4  -1    0.21    0.42
  -3  -4  -1    0.60    0.51
   1   4   2    0.77    0.37
   1   4   2    0.38    0.25
   1   4   2    0.45    0.41
   1   4   2    0.65    0.29
  -1  -4  -2    0.24    0.27
  -1  -4  -2    0.64    0.35
  -1  -4  -2    0.91    0.35
  -1  -4  -2    0.44    0.27
  -1  -4  -2    0.30    0.34
  -1  -4  -2    0.44    0.36
  -1  -4  -2    0.52    0.36
  -1  -4  -2    0.16    0.34
  -1   4   3    7.90    0.80
  -1   4   3    8.11    0.83
  -1   4   3    7.32    0.79
  -1   4   3    8.12    0.79
  -1   4   3    7.33    0.79
  -1   4   3    8.02    0.63
  -1   4   3    7.75    0.80
  -1   4   3    8.14    0.81
   1  -4  -3    8.25    0.63
   1  -4  -3    7.27    0.78
   1  -4  -3    8.07    0.77
   1  -4  -3    7.83    0.83
   1  -4  -3    6.73    0.81
   1  -4  -3    8.49    0.74
   1  -4  -3    6.01    0.71
  -3   4   4    2.26    0.50
  -3   4   4    2.90    0.62
  -3   4   4    2.18    0.54
  -3   4   4    2.28    0.62
  -3   4   4    2.62    0.59
   3  -4  -4    3.11    0.67
   3  -4  -4    2.03    0.51
  -5   4   5    5.33    0.80
  -5   4   5    7.08    0.51
  -5   4   5    8.63    1.03
  -5   4   5    6.07    0.87
  -5   4   5    6.97    1.04
  -5   4   5    6.46    0.67
   5  -4  -5    8.95    1.05
   5  -4  -5    7.13    0.66
   5  -4  -5    7.08    1.07
   5  -4  -5    8.24    1.01
  -7   4   6    8.73    1.93
  -7   4   6    7.20    0.83
  -7   4   6    7.10    1.43
  -7   4   6    8.17    1.14
  -7   4   6    9.49    1.54
   7  -4  -6    6.59    1.21
   7  -4  -6    9.92    1.63
   7  -4  -6    5.92    0.77
   7  -4  -6    7.60    1.41
  -9   4   7    0.55    0.89
  -9   4   7   -0.13    0.89
  -9   4   7   -0.30    0.74
  -9   4   7    1.02    1.12
   9  -4  -7    0.84    0.87
   6   5  -1    2.24    0.97
   6   5  -1    2.56    0.91
  -6  -5   1    4.28    1.14
  -6  -5   1    3.10    1.06
  -6  -5   1    2.24    1.02
   4   5   0   11.50    0.83
   4   5   0   13.30    1.36
   4   5   0   11.08    0.84
   4   5   0   15.31    1.56
   4   5   0   11.74    1.46
   4   5   0   12.17    1.44
   4   5   0   11.18    0.83
  -4  -5   0   13.12    1.49
  -4  -5   0   15.88    1.46
  -4  -5   0   15.18    1.64
  -4  -5   0   13.75    1.38
   2   5   1   13.24    1.43
   2   5   1   13.93    1.37
   2   5   1   14.15    1.38
  -2  -5  -1   17.90    1.16
  -2  -5  -1   17.50    1.41
  -2  -5  -1   15.52    1.43
  -2  -5  -1   18.53    1.21
   0   5   2    2.11    0.51
   0   5   2    2.18    0.57
   0   5   2    1.49    0.49
   0   5   2    1.95    0.61
   0   5   2    1.37    0.46
   0   5   2    1.47    0.65
   0  -5  -2    2.85    0.62
   0  -5  -2    2.36    0.54
   0  -5  -2    2.24    0.58
   0  -5  -2    1.81    0.53
   0  -5  -2    1.94    0.64
  -2   5   3    2.12    0.58
  -2   5   3    2.19    0.32
  -2   5   3    1.84    0.63
  -2   5   3    2.28    0.55
   2  -5  -3    1.79    0.25
   2  -5  -3    2.40    0.63
   2  -5  -3    2.36    0.67
   2  -5  -3    2.25    0.54
   2  -5  -3    2.90    0.69
  -4   5   4    6.76    0.97
  -4   5   4    7.30    0.95
  -4   5   4    8.65    0.90
  -4   5   4    6.00    0.76
  -4   5   4    4.55    0.67
   4  -5  -4    6.99    0.88
   4  -5  -4    5.72    0.80
   4  -5  -4    6.24    0.71
   4  -5  -4    6.44    0.73
  -6   5   5    1.49    0.37
  -6   5   5    1.44    0.18
  -6   5   5    2.22    0.65
  -6   5   5    0.97    0.58
  -6   5   5    1.59    0.70
  -6   5   5    3.14    0.93
   6  -5  -5    2.47    0.70
   6  -5  -5    0.76    0.49
   6  -5  -5    1.58    0.38
   6  -5  -5    2.56    0.89
  -8   5   6    0.95    0.68
   8  -5  -6    0.23    0.81
   5   6  -1    2.94    1.05
   5   6  -1    3.68    0.99
   5   6  -1    3.51    1.28
  -5  -6   1    1.26    0.64
  -5  -6   1    2.02    0.93
  -5  -6   1    2.39    1.07
   3   6   0   18.17    1.73
   3   6   0   14.57    0.91
   3   6   0   14.02    0.85
   3   6   0   14.57    0.86
   3   6   0   17.44    1.59
   3   6   0   13.69    1.44
   3   6   0   16.88    1.59
   3   6   0   15.19    0.87
  -3  -6   0   15.87    1.61
  -3  -6   0   18.26    1.62
  -3  -6   0   16.54    1.51
  -3  -6   0   17.58    1.73
   1   6   1    0.49    0.36
   1   6   1    0.16    0.47
   1   6   1    0.19    0.29
   1   6   1    0.23    0.35
   1   6   1    0.77    0.34
  -1  -6  -1   -0.26    0.38
  -1  -6  -1    0.34    0.43
  -1  -6  -1    0.19    0.60
  -1  -6  -1    0.94    0.54
  -1  -6  -1   -0.17    0.30
  -1  -6  -1    0.25    0.30
  -1   6   2   15.90    1.22
  -1   6   2   17.75    1.50
  -1   6   2   17.82    1.40
  -1   6   2   17.79    1.35
  -1   6   2   18.35    1.38
  -1   6   2   14.47    1.47
   1  -6  -2   18.71    1.56
   1  -6  -2   16.66    1.39
   1  -6  -2   17.39    1.52
   1  -6  -2   16.53    1.21
   1  -6  -2   19.08    1.30
  -3   6   3    2.13    0.57
  -3   6   3    0.81    0.47
  -3   6   3    1.60    0.49
   3  -6  -3    1.38    0.38
   3  -6  -3    1.96    0.55
   3  -6  -3    2.38    0.61
  -5   6   4    0.60    0.35
  -5   6   4    0.50    0.39
  -5   6   4   -0.35    0.53
  -5   6   4   -0.07    0.33
  -5   6   4    1.08    0.64
   5  -6  -4    0.27    0.40
   5  -6  -4    0.85    0.38
   5  -6  -4    0.54    0.49
   5  -6  -4    0.00    0.52
  -7   6   5    8.91    1.54
  -7   6   5    8.23    1.50
  -7   6   5    6.59    1.54
  -7   6   5    7.57    1.10
   7  -6  -5    8.05    1.44
   7  -6  -5    8.65    1.66
   7  -6  -5    6.44    1.11
  -9   6   6    1.04    0.91
  -9   6   6    3.15    1.12
  -9   6   6   -0.59    0.82
   9  -6  -6    1.19    0.89
   9  -6  -6   -0.33    1.04
   4   7  -1    2.81    1.04
   4   7  -1    3.41    1.10
   4   7  -1    1.45    0.80
  -4  -7   1    1.47    0.94
  -4  -7   1    2.02    1.07
  -4  -7   1    1.20    0.84
   2   7   0    2.91    0.34
   2   7   0    4.07    0.87
   2   7   0    3.33    0.92
   2   7   0    2.93    0.32
  -2  -7   0    5.15    1.10
  -2  -7   0    3.12    0.70
  -2  -7   0    5.59    1.14
   0   7   1   -0.09    0.30
   0   7   1    0.35    0.35
   0   7   1   -0.45    0.49
   0   7   1   -0.09    0.27
   0  -7  -1    0.10    0.42
   0  -7  -1    0.25    0.39
   0  -7  -1    0.10    0.37
   0  -7  -1   -0.28    0.31
   0  -7  -1    0.02    0.53
  -2   7   2    3.27    0.73
  -2   7   2    3.82    0.58
  -2   7   2    3.84    0.82
  -2   7   2    4.11    0.94
  -2   7   2    3.19    0.69
  -2   7   2    3.22    0.83
   2  -7  -2    3.09    0.54
   2  -7  -2    3.26    0.77
   2  -7  -2    4.60    1.03
   2  -7  -2    3.55    0.59
   2  -7  -2    4.21    0.95
  -4   7   3   13.61    1.18
  -4   7   3   14.29    1.19
  -4   7   3    8.07    1.52
   4  -7  -3   11.21    1.24
   4  -7  -3    9.75    1.19
   4  -7  -3   13.53    0.88
   4  -7  -3    8.61    1.14
  -6   7   4    1.30    0.73
  -6   7   4    0.93    0.61
  -6   7   4    0.51    0.48
   6  -7  -4    1.32    0.73
   6  -7  -4    0.04    0.38
   6  -7  -4    0.93    0.40
   6  -7  -4    1.22    0.46
   6  -7  -4    0.89    0.73
  -8   7   5    2.23    1.07
  -8   7   5    1.28    1.07
  -8   7   5    1.58    0.79
   8  -7  -5    0.29    0.72
   8  -7  -5    1.63    0.85
   3   8  -1    1.96    0.89
   3   8  -1    2.36    0.94
   3   8  -1    2.52    1.13
  -3  -8   1    2.93    1.01
  -3  -8   1    2.41    0.96
  -3  -8   1    2.76    1.14
   1   8   0    3.81    0.96
   1   8   0    3.20    0.54
   1   8   0    2.96    0.52
   1   8   0    3.09    0.94
  -1  -8   0    4.72    1.10
  -1  -8   0    2.89    0.64
  -1  -8   0    4.10    1.38
  -1  -8   0    4.30    1.12
  -1   8   1    4.66    0.87
  -1   8   1    4.95    1.08
  -1   8   1    3.94    0.76
  -1   8   1    3.66    0.81
  -1   8   1    5.29    0.96
   1  -8  -1    5.42    1.19
   1  -8  -1    2.92    0.79
   1  -8  -1    4.22    1.16
  -3   8   2   19.82    1.79
  -3   8   2   20.50    1.80
  -3   8   2   20.24    1.73
  -3   8   2   19.39    1.52
  -3   8   2   21.03    1.70
   3  -8  -2   18.24    1.68
   3  -8  -2   20.55    1.31
   3  -8  -2   18.21    1.74
   3  -8  -2   20.83    1.80
   3  -8  -2   19.91    1.28
  -5   8   3    5.46    1.25
  -5   8   3    5.14    1.16
  -5   8   3    4.41    1.08
  -5   8   3    3.39    0.79
   5  -8  -3    5.79    1.25
   5  -8  -3    5.03    1.41
   5  -8  -3    5.59    1.09
  -7   8   4    1.47    0.91
  -7   8   4    2.07    0.86
  -7   8   4    1.09    0.75
  -7   8   4    0.62    0.55
   7  -8  -4    0.20    0.30
   7  -8  -4    1.17    0.82
   7  -8  -4    1.35    0.76
   2   9  -1   -0.08    0.82
   2   9  -1   -0.20    0.59
   2   9  -1   -1.19    0.54
  -2  -9   1   -0.03    0.78
  -2  -9   1   -0.98    0.74
  -2  -9   1    1.30    0.82
   0   9   0   -0.25    0.43
   0   9   0    0.38    0.43
   0   9   0   -0.05    0.34
   0   9   0    0.11    0.45
   0   9   0   -0.10    0.52
   0  -9   0   -0.33    0.49
   0  -9   0   -0.07    0.48
   0  -9   0    0.69    0.64
   0  -9   0   -0.38    0.79
  -2   9   1    1.50    0.74
  -2   9   1    0.88    0.66
  -2   9   1    0.86    0.57
  -2   9   1    1.05    0.50
  -2   9   1    0.10    0.57
   2  -9  -1    0.69    0.51
   2  -9  -1    1.23    0.63
   2  -9  -1    0.57    0.71
   2  -9  -1    1.24    0.72
   2  -9  -1    2.41    0.97
  -4   9   2    0.71    0.62
  -4   9   2    2.62    0.95
  -4   9   2    4.03    0.80
  -4   9   2    1.91    0.77
   4  -9  -2    2.63    0.76
   4  -9  -2    2.89    1.01
   4  -9  -2    1.94    0.93
  -6   9   3    0.84    0.53
  -6   9   3    0.64    0.77
  -6   9   3   -0.06    0.74
  -6   9   3    1.49    0.78
   6  -9  -3    0.92    0.94
   6  -9  -3    0.37    0.64
   6  -9  -3    0.49    0.62
  -8   9   4    0.46    0.71
  -8   9   4    0.39    0.66
   8  -9  -4    1.02    1.22
   8  -9  -4    1.28    1.06
   1  10  -1    1.00    0.80
   1  10  -1    0.44    0.72
  -1 -10   1    0.07    0.84
  -1 -10   1    1.57    1.00
  -1 -10   1    1.26    0.97
  -1  10   0    1.64    0.60
  -1  10   0    1.45    0.78
  -1  10   0    1.37    0.75
  -1  10   0    0.77    0.54
  -1  10   0    1.00    0.59
   1 -10   0    0.38    0.55
   1 -10   0    1.19    0.72
   1 -10   0    1.07    0.79
  -3  10   1    0.03    0.54
  -3  10   1    0.76    0.60
  -3  10   1    0.26    0.48
  -3  10   1    0.09    0.65
  -3  10   1    0.26    0.51
   3 -10  -1   -0.02    0.62
   3 -10  -1    1.05    0.55
   3 -10  -1   -0.66    0.45
   3 -10  -1    0.53    0.59
  -5  10   2    0.63    0.75
  -5  10   2    0.77    0.69
  -5  10   2    1.31    0.82
  -5  10   2    0.08    0.45
   5 -10  -2   -0.11    0.80
   5 -10  -2    1.31    0.72
   5 -10  -2    1.18    0.92
  -7  10   3    0.85    0.97
  -7  10   3    0.43    0.88
   7 -10  -3    0.17    0.96
   0  11  -1   -0.26    0.87
   0  11  -1   -0.42    0.59
   0 -11   1   -0.45    0.83
   0 -11   1   -0.91    0.93
   0 -11   1    0.08    0.82
  -2  11   0    0.49    0.72
  -2  11   0    0.53    0.66
  -2  11   0   -0.80    0.77
  -2  11   0    0.06    0.44
  -2  11   0   -0.35    0.52
   2 -11   0   -0.87    0.66
   2 -11   0   -0.09    0.62
   2 -11   0   -0.29    0.83
   2 -11   0   -0.37    0.65
  -4  11   1    5.52    1.14
  -4  11   1    3.19    1.18
  -4  11   1    5.09    1.18
  -4  11   1    5.86    1.03
   4 -11  -1    4.66    1.15
   4 -11  -1    3.82    1.46
   4 -11  -1    4.28    1.32
  -6  11   2    2.23    1.00
  -6  11   2    4.13    1.35
  -6  11   2    2.05    0.84
   6 -11  -2    2.33    1.13
   6 -11  -2    2.67    1.65
   6 -11  -2    1.19    0.85
   5  -9   7   -0.75    0.84
   5  -9   7    0.53    0.68
   5  -9   7    0.63    0.72
   5  -9   7    0.43    0.81
   5  -9   7    1.00    0.61
   5  -9   7    0.42    0.71
  -5   9  -7   -0.27    0.41
  -5   9  -7    1.34    0.93
  -5   9  -7    0.69    0.66
  -5   9  -7    0.64    0.43
   3  -9   8    0.60    0.64
   3  -9   8    0.35    0.77
   3  -9   8    2.03    0.98
   3  -9   8    3.37    0.94
   3  -9   8    1.56    0.77
  -3   9  -8    0.87    0.40
  -3   9  -8    0.85    0.88
  -3   9  -8    1.03    0.46
  -3   9  -8    0.61    0.78
  -3   9  -8    1.16    0.77
   1  -9   9    0.94    0.98
   1  -9   9    0.58    0.85
   1  -9   9    0.58    0.68
   1  -9   9    0.19    0.59
   1  -9   9    0.35    0.77
  -1   9  -9    0.57    0.79
  -1   9  -9    0.53    0.80
  -1   9  -9    0.91    0.75
  -1   9  -9    0.43    0.65
  -1   9  -9    0.00    0.37
   6  -8   6   -0.35    0.56
   6  -8   6   -0.27    0.41
   6  -8   6    0.20    0.65
   6  -8   6    0.87    0.73
   6  -8   6   -1.12    0.64
  -6   8  -6   -0.53    0.68
  -6   8  -6    0.06    0.53
  -6   8  -6    0.41    0.65
  -6   8  -6    0.39    0.46
   4  -8   7    1.55    0.84
   4  -8   7    2.29    0.85
   4  -8   7    0.30    0.52
   4  -8   7    1.44    0.69
   4  -8   7    1.63    0.80
  -4   8  -7    0.25    0.63
  -4   8  -7    1.01    0.40
  -4   8  -7    1.35    0.49
   2  -8   8    6.53    1.16
   2  -8   8    4.70    1.13
   2  -8   8    7.51    1.47
   2  -8   8    4.31    0.86
  -2   8  -8    4.69    0.62
  -2   8  -8    6.17    1.43
  -2   8  -8    6.82    1.43
  -2   8  -8    4.15    0.71
  -2   8  -8    4.23    0.98
   0  -8   9    1.25    1.00
   0  -8   9    0.08    0.55
   0  -8   9    0.45    0.72
   0  -8   9    2.16    1.08
   0   8  -9   -1.02    0.48
   0   8  -9    0.92    0.74
   0   8  -9    1.17    0.82
   0   8  -9    0.01    0.49
   0   8  -9    0.49    0.50
  -2  -8  10    1.31    1.11
   2   8 -10   -0.53    0.78
   2   8 -10    0.73    1.01
   2   8 -10    1.06    0.74
   2   8 -10    1.02    0.93
   7  -7   5   -0.17    0.54
   7  -7   5    0.10    0.85
   7  -7   5    0.37    0.74
  -7   7  -5   -1.83    0.76
  -7   7  -5    0.12    0.61
  -7   7  -5    0.87    0.53
   5  -7   6    0.11    0.40
   5  -7   6    1.07    0.86
   5  -7   6    1.39    0.78
   5  -7   6    1.33    0.58
  -5   7  -6    1.44    0.68
  -5   7  -6    0.52    0.73
  -5   7  -6    1.37    0.51
  -5   7  -6    3.09    0.67
   3  -7   7    0.20    0.52
   3  -7   7    0.63    0.70
   3  -7   7    0.62    0.42
   3  -7   7    0.27    0.63
   3  -7   7   -0.21    0.44
   3  -7   7    0.73    0.46
  -3   7  -7    0.02    0.44
  -3   7  -7    0.44    0.48
  -3   7  -7   -0.28    0.32
  -3   7  -7    0.62    0.74
   1  -7   8    5.87    1.05
   1  -7   8    4.35    1.06
   1  -7   8    4.46    1.14
  -1   7  -8    4.31    0.62
  -1   7  -8    4.82    1.03
  -1  -7   9    1.99    0.99
  -1  -7   9    1.18    0.90
  -1  -7   9    3.18    0.74
  -1  -7   9    2.02    0.73
   1   7  -9    1.38    0.70
   1   7  -9    1.39    0.59
   1   7  -9    1.93    0.61
   1   7  -9    1.77    0.64
   1   7  -9    1.62    0.86
  -3  -7  10    0.45    0.88
  -3  -7  10   -0.14    1.12
   3   7 -10    1.48    0.79
   3   7 -10    0.94    0.81
   3   7 -10    0.14    0.78
   3   7 -10    1.21    0.73
   8  -6   4    0.49    0.82
   8  -6   4    2.15    1.33
   8  -6   4    1.62    1.13
  -8   6  -4    1.82    1.20
  -8   6  -4    0.98    1.39
   6  -6   5   -0.48    0.46
   6  -6   5    0.48    0.54
   6  -6   5    0.17    0.44
  -6   6  -5    0.64    0.46
  -6   6  -5    2.08    0.51
  -6   6  -5    0.47    0.70
  -6   6  -5    0.03    0.49
   4  -6   6    9.84    0.93
   4  -6   6    7.81    1.11
   4  -6   6    8.60    1.29
   4  -6   6    7.47    0.91
   4  -6   6    9.81    0.86
   4  -6   6    7.67    0.84
  -4   6  -6    7.86    1.05
  -4   6  -6    8.77    1.19
  -4   6  -6    8.97    0.86
  -4   6  -6    9.68    0.93
   2  -6   7    2.84    0.80
   2  -6   7    4.33    0.95
   2  -6   7    1.72    0.81
   2  -6   7    2.20    0.46
  -2   6  -7    2.43    0.59
  -2   6  -7    1.31    0.34
  -2   6  -7    2.22    0.69
  -2   6  -7    1.24    0.54
   0  -6   8    2.71    0.78
   0  -6   8    4.90    0.68
   0  -6   8    5.23    1.13
   0  -6   8    3.99    0.89
   0   6  -8    4.67    0.82
   0   6  -8    4.77    1.10
   0   6  -8    4.73    0.76
   0   6  -8    6.34    0.75
   0   6  -8    6.61    1.23
  -2  -6   9    7.87    1.57
  -2  -6   9    7.29    0.82
  -2  -6   9    6.80    0.88
  -2  -6   9    6.03    0.86
   2   6  -9    5.92    1.33
   2   6  -9    8.31    1.55
   2   6  -9    5.59    1.07
   2   6  -9    6.31    1.04
   2   6  -9    4.76    0.96
   2   6  -9    6.54    1.15
  -4  -6  10   -0.86    0.58
  -4  -6  10    1.64    1.05
   4   6 -10    0.92    0.76
   4   6 -10    1.28    0.81
   4   6 -10    0.02    0.52
   4   6 -10    0.64    0.72
   7  -5   4   -0.64    0.58
   7  -5   4    0.28    0.87
   7  -5   4   -0.92    0.64
  -7   5  -4   -0.35    0.78
  -7   5  -4    0.29    0.46
  -7   5  -4    0.63    0.58
  -7   5  -4    0.65    0.83
   5  -5   5    5.21    1.19
   5  -5   5    3.50    1.03
  -5   5  -5    3.70    0.70
  -5   5  -5    4.65    0.82
  -5   5  -5    4.67    1.17
   3  -5   6   19.05    1.88
   3  -5   6   22.62    1.53
   3  -5   6   22.82    1.56
   3  -5   6   23.61    1.52
  -3   5  -6   23.41    1.54
  -3   5  -6   25.18    1.86
  -3   5  -6   24.03    1.95
  -3   5  -6   24.57    1.60
  -3   5  -6   23.00    1.59
   1  -5   7    1.31    0.54
   1  -5   7    1.12    0.35
   1  -5   7    0.62    0.41
   1  -5   7    0.53    0.48
   1  -5   7    0.92    0.34
  -1   5  -7    0.42    0.43
  -1   5  -7    1.08    0.36
  -1   5  -7    1.06    0.35
  -1   5  -7    0.85    0.53
  -1   5  -7    1.60    0.59
  -1   5  -7    1.25    0.39
  -1  -5   8   -0.10    0.37
  -1  -5   8    0.41    0.47
  -1  -5   8   -0.08    0.40
  -1  -5   8    0.17    0.46
  -1  -5   8    0.14    0.35
   1   5  -8   -0.09    0.27
   1   5  -8    0.27    0.43
   1   5  -8   -0.10    0.34
   1   5  -8    0.24    0.25
   1   5  -8    0.26    0.45
   1   5  -8   -0.21    0.46
  -3  -5   9    1.58    0.44
  -3  -5   9    1.78    0.61
  -3  -5   9    2.05    0.87
   3   5  -9    2.07    0.93
   3   5  -9    1.38    0.64
   3   5  -9    1.17    0.59
   3   5  -9    1.59    0.67
   3   5  -9    2.18    0.80
   3   5  -9    0.66    0.50
  -5  -5  10    1.66    1.09
  -5  -5  10    0.05    0.95
   5   5 -10    1.83    0.93
   5   5 -10    1.37    1.05
   5   5 -10    1.27    0.82
   5   5 -10    1.86    1.05
   8  -4   3    1.01    0.84
   8  -4   3    1.56    0.84
  -8   4  -3    1.05    0.74
  -8   4  -3    1.54    0.82
   6  -4   4    5.52    2.12
   6  -4   4    2.24    0.63
   6  -4   4    3.08    0.91
   6  -4   4    2.14    0.67
  -6   4  -4    2.12    0.55
  -6   4  -4    3.09    0.74
  -6   4  -4    1.29    0.75
   4  -4   5    2.01    0.69
   4  -4   5    2.02    0.50
   4  -4   5    1.60    0.21
   4  -4   5    2.39    0.88
   4  -4   5    2.81    0.56
   4  -4   5    2.18    0.75
   4  -4   5    1.82    0.22
  -4   4  -5    3.33    0.95
  -4   4  -5    2.19    0.68
  -4   4  -5    2.01    0.56
  -4   4  -5    1.79    0.48
   2  -4   6    0.03    0.20
   2  -4   6   -0.03    0.37
   2  -4   6    0.53    0.35
   2  -4   6    0.60    0.25
   2  -4   6    0.75    0.29
  -2   4  -6    0.43    0.25
  -2   4  -6    0.53    0.54
  -2   4  -6    1.17    0.46
  -2   4  -6    0.90    0.35
  -2   4  -6   -0.05    0.26
   0  -4   7    0.63    0.50
   0  -4   7    0.77    0.37
   0  -4   7    0.65    0.31
   0  -4   7    0.76    0.42
   0   4  -7    0.45    0.57
   0   4  -7    0.74    0.33
   0   4  -7    1.09    0.62
   0   4  -7    0.68    0.27
   0   4  -7    0.68    0.41
   0   4  -7    1.10    0.40
   0   4  -7    1.09    0.57
  -2  -4   8   30.12    1.95
  -2  -4   8   29.57    1.85
  -2  -4   8   29.90    2.34
  -2  -4   8   27.89    1.98
  -2  -4   8   25.25    1.88
   2   4  -8   27.44    1.92
   2   4  -8   33.37    2.37
   2   4  -8   26.22    1.94
   2   4  -8   27.65    2.11
   2   4  -8   28.85    2.27
  -4  -4   9    0.75    0.39
  -4  -4   9    1.25    0.78
  -4  -4   9    0.83    0.48
  -4  -4   9    1.16    0.55
   4   4  -9   -0.35    0.46
   4   4  -9    0.21    0.50
   4   4  -9   -0.18    0.55
   4   4  -9    0.52    0.48
  -6  -4  10    0.54    0.82
  -6  -4  10    1.62    0.95
   6   4 -10    0.53    0.91
   6   4 -10    0.07    0.77
   6   4 -10    0.18    0.93
   9  -3   2    0.39    0.99
   7  -3   3    0.80    0.64
   7  -3   3    1.11    0.78
   7  -3   3    1.76    0.72
   7  -3   3    0.97    0.73
  -7   3  -3    1.35    0.71
  -7   3  -3    0.05    0.82
  -7   3  -3    0.28    0.46
  -7   3  -3    1.00    0.87
   5  -3   4    6.80    1.20
   5  -3   4    7.53    0.88
   5  -3   4    6.86    0.81
   5  -3   4    7.57    1.05
   5  -3   4    6.72    0.70
  -5   3  -4    6.31    0.87
  -5   3  -4    4.57    0.69
  -5   3  -4    7.84    1.06
  -5   3  -4    5.57    0.73
   3  -3   5    0.31    0.21
   3  -3   5    0.21    0.33
   3  -3   5    0.58    0.21
   3  -3   5    0.17    0.33
   3  -3   5    0.06    0.21
   3  -3   5    0.02    0.36
  -3   3  -5    0.23    0.31
  -3   3  -5    0.21    0.30
  -3   3  -5    0.28    0.31
  -3   3  -5    0.50    0.36
  -3   3  -5    0.29    0.22
  -3   3  -5    0.36    0.19
   1  -3   6    0.12    0.14
   1  -3   6    0.36    0.12
   1  -3   6    0.30    0.33
   1  -3   6    0.32    0.31
   1  -3   6    0.29    0.18
   1  -3   6    0.07    0.33
  -1   3  -6    0.27    0.26
  -1   3  -6    0.46    0.31
  -1   3  -6    0.46    0.23
  -1   3  -6   -0.06    0.27
  -1   3  -6    0.60    0.36
  -1  -3   7    1.75    0.55
  -1  -3   7    0.92    0.46
  -1  -3   7    1.39    0.59
  -1  -3   7    1.16    0.34
   1   3  -7    1.09    0.51
   1   3  -7    1.84    0.64
   1   3  -7    1.00    0.41
   1   3  -7    1.48    0.34
   1   3  -7    1.55    0.60
   1   3  -7    1.45    0.48
   1   3  -7    0.93    0.53
  -3  -3   8    6.48    0.81
  -3  -3   8    8.12    0.87
  -3  -3   8    7.39    1.01
  -3  -3   8    8.12    0.80
   3   3  -8    3.83    0.93
   3   3  -8    7.85    0.89
   3   3  -8    5.83    0.82
   3   3  -8    6.82    0.97
   3   3  -8    5.42    1.02
  -5  -3   9    0.55    0.71
  -5  -3   9    0.29    0.73
  -5  -3   9    1.05    0.58
  -5  -3   9    0.86    0.54
   5   3  -9    1.33    0.62
   5   3  -9    0.37    0.61
   5   3  -9    1.55    0.77
   5   3  -9    0.27    0.63
   8  -2   2    0.72    0.55
   8  -2   2    1.43    0.76
   8  -2   2    0.64    0.77
  -8   2  -2   -0.33    0.66
  -8   2  -2   -0.08    0.52
  -8   2  -2    1.39    0.94
   6  -2   3    2.18    0.53
   6  -2   3    0.69    0.55
   6  -2   3    0.34    0.41
   6  -2   3    1.24    0.70
   6  -2   3    1.09    0.61
  -6   2  -3    0.78    0.45
  -6   2  -3    2.76    0.75
  -6   2  -3    0.63    0.62
  -6   2  -3    0.39    0.52
   4  -2   4    0.79    0.48
   4  -2   4    1.23    0.56
   4  -2   4    1.23    0.42
   4  -2   4    1.35    0.47
  -4   2  -4    0.86    0.41
  -4   2  -4    1.21    0.62
  -4   2  -4    0.43    0.41
  -4   2  -4    0.78    0.36
  -4   2  -4    0.57    0.32
   2  -2   5    4.57    0.44
   2  -2   5    4.96    0.38
   2  -2   5    5.08    0.88
   2  -2   5    5.81    0.65
   2  -2   5    5.41    0.53
   2  -2   5    4.80    0.37
   2  -2   5    4.70    0.89
  -2   2  -5    5.02    0.66
  -2   2  -5    4.48    0.37
  -2   2  -5    5.84    1.10
  -2   2  -5    4.92    0.64
  -2   2  -5    6.93    1.12
  -2   2  -5    4.11    0.54
  -2   2  -5    4.87    0.45
   0  -2   6   93.92    5.25
   0  -2   6   93.67    5.38
   0  -2   6   87.14    5.35
   0  -2   6  106.64    5.29
   0  -2   6  101.39    5.45
   0  -2   6   95.94    4.86
   0  -2   6   93.09    5.14
   0  -2   6   98.42    5.36
   0   2  -6   99.43    5.30
   0   2  -6  101.75    5.41
   0   2  -6   99.89    5.43
   0   2  -6  106.70    5.32
   0   2  -6   94.90    4.86
   0   2  -6  100.24    5.44
  -2  -2   7    0.48    0.35
  -2  -2   7    1.10    0.38
  -2  -2   7    0.45    0.45
  -2  -2   7    1.39    0.45
  -2  -2   7    1.52    0.37
   2   2  -7    1.11    0.43
   2   2  -7    1.21    0.47
   2   2  -7    0.91    0.42
   2   2  -7    1.01    0.30
   2   2  -7    1.16    0.36
   2   2  -7    0.84    0.42
  -4  -2   8   17.72    1.35
  -4  -2   8   16.28    1.43
  -4  -2   8   17.25    1.44
  -4  -2   8   15.97    1.50
   4   2  -8   16.02    1.42
   4   2  -8   15.22    1.52
   4   2  -8   15.60    1.54
   4   2  -8   12.06    1.28
   4   2  -8   15.63    1.53
   4   2  -8   15.15    1.44
  -6  -2   9    0.13    0.51
  -6  -2   9    0.30    0.47
  -6  -2   9    0.06    0.59
  -6  -2   9    0.00    0.54
  -6  -2   9   -0.93    0.56
   6   2  -9   -0.44    0.60
   6   2  -9    0.85    0.62
   6   2  -9    1.28    0.76
   6   2  -9   -0.13    0.63
   7  -1   2    2.83    0.88
   7  -1   2    3.25    0.90
   7  -1   2    2.21    0.79
   7  -1   2    1.47    0.70
   7  -1   2    1.48    0.58
  -7   1  -2    2.28    0.59
  -7   1  -2    3.45    1.07
  -7   1  -2    2.82    0.96
  -7   1  -2    3.07    1.30
   5  -1   3    4.03    0.82
   5  -1   3    3.75    0.81
   5  -1   3    4.50    0.81
   5  -1   3    4.91    1.00
   5  -1   3    3.07    0.61
  -5   1  -3    3.55    0.81
  -5   1  -3    2.70    0.60
  -5   1  -3    3.86    0.80
   3  -1   4   16.63    1.30
   3  -1   4   16.25    1.42
   3  -1   4   17.49    1.19
  -3   1  -4   19.03    1.37
  -3   1  -4   17.88    1.47
  -3   1  -4   17.96    1.41
  -3   1  -4   18.34    1.35
  -3   1  -4   18.21    1.19
   1  -1   5    6.98    0.76
   1  -1   5    5.84    0.76
   1  -1   5    7.90    0.70
   1  -1   5    7.24    0.63
   1  -1   5    7.52    0.80
   1  -1   5    8.29    0.71
   1  -1   5    7.44    0.89
  -1   1  -5    7.68    0.81
  -1   1  -5    8.71    0.87
  -1   1  -5    6.00    0.67
  -1   1  -5    7.09    0.79
  -1   1  -5    8.26    0.65
  -1   1  -5    7.86    0.76
  -1  -1   6   11.45    0.73
  -1  -1   6   10.22    0.98
  -1  -1   6   11.15    0.94
  -1  -1   6   10.65    1.10
  -1  -1   6   11.14    0.98
  -1  -1   6   11.68    1.03
  -1  -1   6    9.39    1.00
  -1  -1   6   10.53    0.91
  -1  -1   6    9.90    0.96
   1   1  -6   12.75    1.17
   1   1  -6   10.14    0.96
   1   1  -6    8.87    0.99
   1   1  -6   12.59    1.03
   1   1  -6   10.94    0.94
   1   1  -6   10.91    0.97
   3   1  -7    2.51    0.60
   3   1  -7    2.91    0.58
   3   1  -7    3.12    0.75
   3   1  -7    1.94    0.50
   3   1  -7    2.45    0.48
  -5  -1   8   -0.07    0.42
  -5  -1   8    0.04    0.42
  -5  -1   8   -0.26    0.39
  -5  -1   8    0.04    0.38
   5   1  -8    0.18    0.38
   5   1  -8    0.08    0.49
   5   1  -8    0.53    0.56
   5   1  -8    0.23    0.43
   5   1  -8   -0.30    0.37
  -7  -1   9    0.11    0.64
  -7  -1   9   -0.44    0.69
  -7  -1   9    0.01    0.66
  -7  -1   9    0.16    0.60
  -7  -1   9    0.65    0.68
   7   1  -9   -0.47    0.32
   7   1  -9    0.56    0.82
   7   1  -9   -0.37    0.74
   7   1  -9    1.06    0.62
   8   0   1    0.16    0.63
   8   0   1    0.09    0.61
  -8   0  -1   -0.23    0.58
  -8   0  -1    1.19    1.00
   6   0   2   30.51    2.38
   6   0   2   27.75    2.24
   6   0   2   31.14    2.26
   6   0   2   27.52    2.23
  -6   0  -2   31.71    2.50
  -6   0  -2   23.63    2.16
  -6   0  -2   26.34    1.64
  -6   0  -2   29.78    2.35
  -6   0  -2   28.93    2.19
   4   0   3    2.83    0.71
   4   0   3    2.95    0.73
   4   0   3    2.88    0.68
   4   0   3    2.81    0.62
   4   0   3    3.67    0.72
  -4   0  -3    2.45    0.60
  -4   0  -3    2.77    0.83
  -4   0  -3    2.30    0.61
  -4   0  -3    2.70    0.84
  -4   0  -3    2.93    0.67
  -4   0  -3    2.33    0.24
  -4   0  -3    2.16    0.22
   2   0   4   30.06    2.14
   2   0   4   37.16    2.16
   2   0   4   30.68    2.07
   2   0   4   37.80    1.95
   2   0   4   34.31    1.91
   2   0   4   35.72    2.30
   2   0   4   36.53    2.20
  -2   0  -4   32.80    1.91
  -2   0  -4   32.95    2.21
  -2   0  -4   30.20    2.13
  -2   0  -4   30.29    2.29
  -2   0  -4   31.71    2.19
  -2   0  -4   35.40    2.17
   0   0   5   40.23    2.49
   0   0   5   37.17    2.19
   0   0   5   34.34    2.24
   0   0   5   34.61    2.31
   0   0   5   38.56    2.24
   0   0   5   33.56    2.10
   0   0   5   36.07    2.21
   0   0  -5   36.41    2.22
   0   0  -5   36.20    1.86
   0   0  -5   36.47    2.15
   0   0  -5   35.58    2.22
   0   0  -5   32.67    2.30
   0   0  -5   38.15    2.30
   0   0  -5   36.94    1.87
   0   0  -5   36.25    2.24
  -2   0   6   47.75    2.74
  -2   0   6   42.24    2.72
  -2   0   6   42.12    2.66
  -2   0   6   43.41    2.76
  -2   0   6   42.37    2.73
  -2   0   6   43.46    2.53
  -2   0   6   46.08    2.84
  -2   0   6   44.49    2.75
  -2   0   6   51.13    3.09
   2   0  -6   48.88    2.84
   2   0  -6   50.13    2.85
   2   0  -6   45.60    2.77
   2   0  -6   45.82    2.69
   2   0  -6   44.80    2.55
   2   0  -6   50.38    2.82
   2   0  -6   42.95    2.78
  -4   0   7    2.23    0.59
  -4   0   7    2.33    0.73
  -4   0   7    2.36    0.65
  -4   0   7    2.14    0.61
  -4   0   7    1.70    0.65
   4   0  -7    1.62    0.64
   4   0  -7    1.38    0.53
   4   0  -7    3.59    0.82
   4   0  -7    2.07    0.62
   4   0  -7    1.68    0.67
   4   0  -7    3.60    0.86
  -6   0   8    1.63    0.53
  -6   0   8   -0.24    0.46
  -6   0   8    0.02    0.45
  -6   0   8    0.66    0.52
   6   0  -8    0.98    0.57
   6   0  -8    0.65    0.67
   6   0  -8   -0.55    0.44
  -8   0   9   -0.25    0.73
  -8   0   9   -0.25    0.98
  -8   0   9    0.39    0.81
  -8   0   9    1.08    0.98
  -8   0   9   -1.49    0.77
   8   0  -9   -0.54    0.84
   8   0  -9    0.15    0.84
   8   0  -9    2.04    0.97
   7   1   1   -0.92    0.40
   7   1   1    1.21    0.73
   7   1   1    0.20    0.50
   7   1   1    0.16    0.39
   7   1   1    0.91    0.67
  -7  -1  -1    0.41    0.52
  -7  -1  -1   -0.95    0.64
  -7  -1  -1    0.20    0.55
  -7  -1  -1   -0.37    0.45
   5   1   2    3.45    0.74
   5   1   2    3.14    0.81
   5   1   2    5.31    0.98
   5   1   2    2.82    0.73
  -5  -1  -2    1.46    0.68
  -5  -1  -2    1.58    0.42
  -5  -1  -2    3.09    0.53
  -5  -1  -2    2.61    0.71
  -5  -1  -2    2.77    0.80
  -5  -1  -2    1.55    0.56
   3   1   3    3.33    0.65
   3   1   3    4.57    0.77
   3   1   3    4.56    0.81
   3   1   3    3.97    0.79
   3   1   3    4.24    0.75
   3   1   3    4.64    0.77
  -3  -1  -3    2.80    0.40
  -3  -1  -3    3.89    0.71
  -3  -1  -3    2.95    0.37
  -3  -1  -3    4.13    0.79
  -3  -1  -3    4.08    0.76
  -3  -1  -3    4.95    0.92
  -3  -1  -3    4.00    0.86
   1   1   4   20.29    1.23
   1   1   4   19.66    1.39
   1   1   4   20.33    1.42
   1   1   4   20.11    1.42
   1   1   4   19.66    1.26
   1   1   4   18.86    1.43
  -1  -1  -4   20.26    1.45
  -1  -1  -4   18.02    1.41
  -1  -1  -4   18.84    1.38
  -1  -1  -4   19.56    1.45
  -1  -1  -4   19.42    1.24
  -1  -1  -4   18.55    1.43
  -1  -1  -4   19.72    1.21
  -1   1   5    3.87    0.55
  -1   1   5    5.34    0.80
  -1   1   5    4.43    0.59
  -1   1   5    4.55    0.51
  -1   1   5    4.65    0.82
  -1   1   5    6.06    0.89
  -1   1   5    4.20    0.54
   1  -1  -5    4.74    1.05
   1  -1  -5    4.97    0.64
   1  -1  -5    5.79    0.62
   1  -1  -5    4.47    0.59
   1  -1  -5    4.24    0.44
   1  -1  -5    4.37    0.44
   1  -1  -5    3.86    0.54
   1  -1  -5    3.79    0.50
  -3   1   6   32.25    1.97
  -3   1   6   36.00    2.20
  -3   1   6   31.81    2.17
  -3   1   6   32.77    2.21
  -3   1   6   31.23    1.98
  -3   1   6   31.31    2.16
  -3   1   6   29.58    2.09
  -3   1   6   32.74    1.99
   3  -1  -6   31.46    2.05
   3  -1  -6   32.03    2.14
   3  -1  -6   33.46    2.37
   3  -1  -6   28.85    2.13
   3  -1  -6   32.07    2.02
   3  -1  -6   30.92    2.16
  -5   1   7   12.15    1.32
  -5   1   7   11.25    1.06
  -5   1   7   13.28    1.30
  -5   1   7   12.36    1.12
  -5   1   7   10.64    1.03
  -5   1   7   11.70    1.28
   5  -1  -7   12.07    1.30
   5  -1  -7   12.34    1.13
   5  -1  -7   12.35    1.27
   5  -1  -7   11.31    1.16
   5  -1  -7   11.53    1.13
  -7   1   8    0.68    0.65
  -7   1   8    0.81    0.67
  -7   1   8    0.90    0.59
  -7   1   8   -0.01    0.46
  -7   1   8    1.37    0.69
   7  -1  -8   -0.19    0.62
   7  -1  -8    0.54    0.60
   7  -1  -8    0.35    0.68
   7  -1  -8    0.06    0.49
   8   2   0    0.77    0.71
   8   2   0    0.24    0.85
  -8  -2   0    3.11    1.16
  -8  -2   0    4.35    1.44
  -8  -2   0   -0.03    0.94
  -8  -2   0    2.05    1.05
   6   2   1    2.31    0.61
   6   2   1    1.94    0.66
   6   2   1    2.39    0.66
   6   2   1    2.01    0.78
  -6  -2  -1    1.92    0.65
  -6  -2  -1    2.26    0.68
  -6  -2  -1    2.58    0.78
  -6  -2  -1    2.41    0.83
  -6  -2  -1    3.68    1.08
   4   2   2    3.46    0.92
   4   2   2    3.63    0.74
   4   2   2    3.30    0.71
   4   2   2    3.67    0.74
   4   2   2    2.99    0.74
  -4  -2  -2    3.62    0.62
  -4  -2  -2    2.95    0.74
  -4  -2  -2    1.86    0.72
  -4  -2  -2    2.43    0.75
  -4  -2  -2    3.40    0.92
  -4  -2  -2    4.34    0.83
  -4  -2  -2    3.78    0.66
   2   2   3    3.07    0.59
   2   2   3    2.35    0.66
   2   2   3    2.57    0.57
   2   2   3    2.81    0.59
   2   2   3    2.49    0.60
   2   2   3    2.03    0.61
   2   2   3    2.42    0.56
  -2  -2  -3    3.37    0.57
  -2  -2  -3    3.15    0.55
  -2  -2  -3    3.41    0.64
  -2  -2  -3    2.74    0.66
  -2  -2  -3    2.88    0.68
  -2  -2  -3    2.25    0.63
  -2  -2  -3    2.52    0.56
  -2  -2  -3    3.03    0.70
   0   2   4    4.43    0.61
   0   2   4    4.99    0.63
   0   2   4    4.52    0.52
   0   2   4    4.63    0.52
   0   2   4    4.87    0.58
   0   2   4    4.72    0.66
   0   2   4    4.54    0.58
   0  -2  -4    4.63    0.56
   0  -2  -4    4.37    0.61
   0  -2  -4    5.07    0.63
   0  -2  -4    5.44    0.67
   0  -2  -4    4.30    0.48
   0  -2  -4    4.76    0.55
   0  -2  -4    4.57    0.55
  -2   2   5    9.37    1.01
  -2   2   5   10.09    0.80
  -2   2   5   11.37    0.97
  -2   2   5   10.58    0.81
  -2   2   5   14.26    1.17
  -2   2   5   13.03    1.07
  -2   2   5   11.93    0.92
  -2   2   5   10.38    0.99
  -2   2   5    8.86    0.95
   2  -2  -5   13.87    1.11
   2  -2  -5   15.45    1.09
   2  -2  -5   12.52    1.02
   2  -2  -5   14.05    1.13
   2  -2  -5    8.69    0.98
   2  -2  -5   13.33    0.96
   2  -2  -5   13.53    0.85
   2  -2  -5   15.17    1.00
  -4   2   6   38.39    2.65
  -4   2   6   37.11    2.59
  -4   2   6   39.35    2.29
  -4   2   6   39.93    2.29
  -4   2   6   38.41    2.57
  -4   2   6   36.27    2.56
  -4   2   6   39.29    2.41
   4  -2  -6   40.31    2.64
   4  -2  -6   39.79    2.57
   4  -2  -6   39.68    2.40
   4  -2  -6   39.52    2.60
  -6   2   7    9.61    1.13
  -6   2   7    9.36    1.18
  -6   2   7    9.70    1.23
  -6   2   7    8.23    0.95
  -6   2   7    7.85    0.86
  -6   2   7    7.23    0.92
   6  -2  -7    8.57    1.12
   6  -2  -7    8.77    0.90
   6  -2  -7    7.91    1.11
   6  -2  -7    8.83    0.97
   6  -2  -7    9.17    1.21
  -8   2   8    0.12    0.76
  -8   2   8    0.79    0.67
  -8   2   8   -0.12    0.69
  -8   2   8   -0.30    0.70
  -8   2   8    0.91    0.77
   8  -2  -8    0.57    0.84
   8  -2  -8   -1.23    0.69
   8  -2  -8   -0.25    0.53
   7   3   0    0.22    0.56
   7   3   0   -1.62    0.72
   7   3   0   -0.40    0.55
   7   3   0   -0.67    0.57
   7   3   0   -0.44    0.80
  -7  -3   0   -0.31    0.70
  -7  -3   0   -0.53    0.81
  -7  -3   0    0.60    0.92
  -7  -3   0   -0.42    0.67
   5   3   1    6.01    0.98
   5   3   1    7.47    0.88
   5   3   1    9.11    1.53
   5   3   1    7.12    0.82
   5   3   1    6.77    0.85
   5   3   1    9.75    1.82
  -5  -3  -1    8.42    1.49
  -5  -3  -1    5.92    1.26
  -5  -3  -1    7.52    1.04
  -5  -3  -1    8.33    0.95
   3   3   2    4.90    0.60
   3   3   2    5.11    1.02
   3   3   2    6.12    1.04
   3   3   2    4.94    0.67
  -3  -3  -2    4.64    0.65
  -3  -3  -2    4.74    0.62
  -3  -3  -2    6.35    1.07
  -3  -3  -2    6.19    1.13
  -3  -3  -2    5.05    0.68
  -3  -3  -2    4.53    0.92
   1   3   3    0.67    0.43
   1   3   3    0.58    0.34
   1   3   3    1.43    0.43
   1   3   3    1.08    0.41
   1   3   3    0.68    0.38
   1   3   3    0.37    0.37
   1   3   3    1.05    0.48
   1   3   3    0.75    0.32
  -1  -3  -3    0.54    0.36
  -1  -3  -3    1.23    0.53
  -1  -3  -3    0.70    0.36
  -1  -3  -3    0.93    0.45
  -1  -3  -3    1.03    0.43
  -1  -3  -3    1.02    0.41
  -1  -3  -3    0.07    0.33
  -1   3   4    2.03    0.63
  -1   3   4    1.68    0.34
  -1   3   4    1.46    0.57
  -1   3   4    1.25    0.41
  -1   3   4    1.50    0.40
  -1   3   4    2.12    0.55
  -1   3   4    2.38    0.56
  -1   3   4    2.57    0.65
   1  -3  -4    2.35    0.55
   1  -3  -4    1.62    0.45
   1  -3  -4    2.31    0.51
   1  -3  -4    1.47    0.36
   1  -3  -4    2.29    0.51
   1  -3  -4    1.43    0.52
   1  -3  -4    1.96    0.47
   1  -3  -4    1.86    0.71
  -3   3   5    0.24    0.31
  -3   3   5   -0.13    0.12
  -3   3   5   -0.24    0.25
  -3   3   5   -0.24    0.38
  -3   3   5   -0.15    0.25
  -3   3   5    0.30    0.32
  -3   3   5   -0.07    0.25
  -3   3   5    0.10    0.12
   3  -3  -5   -0.31    0.25
   3  -3  -5   -0.21    0.29
   3  -3  -5   -0.18    0.25
   3  -3  -5   -0.24    0.27
   3  -3  -5   -0.04    0.26
  -5   3   6    0.44    0.52
  -5   3   6    0.90    0.46
  -5   3   6    0.01    0.54
  -5   3   6    0.46    0.27
  -5   3   6    0.71    0.36
  -5   3   6    0.05    0.43
  -5   3   6    1.17    0.37
   5  -3  -6    0.86    0.56
   5  -3  -6   -0.13    0.39
   5  -3  -6    1.17    0.43
   5  -3  -6    0.70    0.53
  -7   3   7    0.62    0.64
  -7   3   7    2.08    0.78
  -7   3   7    0.97    0.59
  -7   3   7    2.77    0.64
  -7   3   7    1.83    0.84
  -7   3   7    1.83    0.65
   7  -3  -7    2.52    0.96
   7  -3  -7    1.65    0.62
   7  -3  -7    1.54    0.70
   7  -3  -7    2.46    0.53
  -9   3   8    2.57    1.10
  -9   3   8    3.87    1.21
  -9   3   8    3.92    1.39
   9  -3  -8    2.04    1.21
   9  -3  -8    1.72    1.07
   6   4   0    1.40    0.65
   6   4   0    0.50    0.71
   6   4   0    1.74    0.91
   6   4   0    0.37    0.50
   6   4   0    0.30    0.46
  -6  -4   0    0.96    0.63
  -6  -4   0    0.35    0.85
  -6  -4   0   -1.22    0.73
  -6  -4   0    0.63    0.85
   4   4   1   10.07    1.10
   4   4   1    8.09    0.84
   4   4   1    8.64    1.11
   4   4   1    8.10    1.16
   4   4   1   10.17    1.20
   4   4   1    9.17    0.91
   4   4   1   12.51    1.00
  -4  -4  -1   10.24    1.33
  -4  -4  -1    9.65    1.11
  -4  -4  -1    9.00    1.19
  -4  -4  -1    8.45    1.08
   2   4   2    1.84    0.50
   2   4   2    0.93    0.54
   2   4   2    1.21    0.54
   2   4   2    1.25    0.40
   2   4   2    0.88    0.49
  -2  -4  -2    0.94    0.50
  -2  -4  -2    0.86    0.44
  -2  -4  -2    0.92    0.41
  -2  -4  -2    0.78    0.44
  -2  -4  -2    0.98    0.52
  -2  -4  -2    1.34    0.53
   0   4   3   45.82    3.20
   0   4   3   51.45    2.99
   0   4   3   51.04    3.00
   0   4   3   50.73    2.90
   0   4   3   49.00    2.83
   0   4   3   50.73    2.98
   0   4   3   50.83    3.02
   0   4   3   52.44    2.98
   0  -4  -3   45.63    2.93
   0  -4  -3   53.21    3.03
   0  -4  -3   55.57    3.00
   0  -4  -3   48.68    2.95
   0  -4  -3   46.50    2.84
   0  -4  -3   46.58    2.87
   0  -4  -3   42.07    2.86
   0  -4  -3   50.28    3.11
  -2   4   4   13.97    1.17
  -2   4   4   13.27    1.15
  -2   4   4   13.03    1.13
  -2   4   4   11.78    1.24
  -2   4   4   12.59    1.13
  -2   4   4   14.39    1.24
  -2   4   4   12.27    0.77
  -2   4   4   12.81    1.09
   2  -4  -4   13.72    0.78
   2  -4  -4   13.86    1.14
   2  -4  -4   14.34    1.23
   2  -4  -4   11.65    1.02
   2  -4  -4   14.21    1.11
   2  -4  -4   12.91    1.11
   2  -4  -4   13.67    1.11
   2  -4  -4   13.16    1.22
  -4   4   5    2.17    0.64
  -4   4   5    2.17    0.61
  -4   4   5    1.84    0.62
  -4   4   5    1.75    0.48
  -4   4   5    1.72    0.55
   4  -4  -5    2.87    0.70
   4  -4  -5    2.59    0.62
   4  -4  -5    2.57    0.74
   4  -4  -5    2.24    0.62
  -6   4   6   52.33    3.01
  -6   4   6   54.89    3.77
  -6   4   6   52.20    3.63
  -6   4   6   55.56    3.15
  -6   4   6   53.90    3.63
  -6   4   6   56.86    3.06
  -6   4   6   58.15    3.67
   6  -4  -6   56.58    3.65
   6  -4  -6   56.68    3.14
   6  -4  -6   60.46    3.59
   6  -4  -6   60.98    3.74
  -8   4   7   -1.33    0.65
  -8   4   7    0.34    0.65
  -8   4   7    0.27    0.84
   8  -4  -7   -0.16    0.60
   8  -4  -7    0.45    0.65
   8  -4  -7   -0.69    0.74
   5   5   0   -0.05    0.46
   5   5   0    0.71    0.56
   5   5   0   -0.61    0.39
   5   5   0   -0.44    0.34
   5   5   0    0.00    0.34
   5   5   0    0.08    0.44
  -5  -5   0   -0.40    0.58
  -5  -5   0   -0.12    0.57
  -5  -5   0   -0.38    0.57
  -5  -5   0   -0.79    0.52
   3   5   1   10.17    1.22
   3   5   1    9.84    1.15
   3   5   1    8.92    1.13
   3   5   1    8.61    0.81
   3   5   1    8.58    0.81
   3   5   1   10.61    0.83
   3   5   1    9.74    0.86
   3   5   1    8.59    1.12
  -3  -5  -1   10.01    1.19
  -3  -5  -1   10.33    1.16
  -3  -5  -1   10.87    0.90
  -3  -5  -1   11.20    1.32
  -3  -5  -1   10.31    1.17
   1   5   2    0.77    0.38
   1   5   2    0.21    0.24
   1   5   2    0.82    0.45
   1   5   2    0.70    0.46
   1   5   2    0.96    0.38
   1   5   2    1.13    0.44
  -1  -5  -2    1.10    0.52
  -1  -5  -2    2.52    0.73
  -1  -5  -2    0.33    0.35
  -1  -5  -2    1.92    0.58
  -1   5   3   36.87    2.58
  -1   5   3   36.63    2.30
  -1   5   3   34.63    2.56
  -1   5   3   35.41    2.35
  -1   5   3   36.19    2.10
  -1   5   3   35.65    2.30
   1  -5  -3   35.60    2.35
   1  -5  -3   31.97    2.57
   1  -5  -3   35.54    2.24
   1  -5  -3   39.15    2.47
   1  -5  -3   36.64    2.12
  -3   5   4   27.14    1.92
  -3   5   4   23.33    1.77
  -3   5   4   24.53    1.79
  -3   5   4   26.44    1.76
  -3   5   4   26.20    1.98
   3  -5  -4   24.65    1.85
   3  -5  -4   23.86    1.67
   3  -5  -4   22.61    1.72
   3  -5  -4   25.18    1.90
  -5   5   5    5.17    1.03
  -5   5   5    4.08    0.90
  -5   5   5    4.24    0.61
  -5   5   5    5.59    1.18
  -5   5   5    4.18    0.98
   5  -5  -5    6.29    1.20
   5  -5  -5    4.98    0.85
   5  -5  -5    4.02    0.57
   5  -5  -5    6.73    1.31
  -7   5   6    4.90    1.21
  -7   5   6    2.58    0.90
  -7   5   6    5.00    1.24
  -7   5   6    4.72    1.17
  -7   5   6    3.17    0.53
  -7   5   6    3.73    0.56
   7  -5  -6    4.60    1.31
   7  -5  -6    5.17    1.04
   7  -5  -6    5.30    1.30
  -9   5   7   -0.87    0.85
  -9   5   7    0.96    0.99
  -9   5   7    1.33    0.79
   4   6   0    2.28    1.04
   4   6   0    2.65    0.86
   4   6   0    0.29    0.90
   4   6   0    3.18    1.04
  -4  -6   0    1.59    0.81
  -4  -6   0    1.71    0.78
  -4  -6   0    0.73    0.69
  -4  -6   0    1.25    0.76
   2   6   1    5.63    1.15
   2   6   1    6.78    1.16
   2   6   1    6.70    1.32
   2   6   1    4.96    0.61
   2   6   1    7.05    1.19
   2   6   1    5.61    0.61
  -2  -6  -1    4.99    0.61
  -2  -6  -1    7.67    1.24
  -2  -6  -1    7.54    1.31
  -2  -6  -1    6.28    1.29
  -2  -6  -1    7.95    1.25
  -2  -6  -1    5.86    0.72
   0   6   2   13.46    1.28
   0   6   2   12.16    1.14
   0   6   2   11.23    0.99
   0   6   2   11.92    1.10
   0   6   2   12.23    1.07
   0   6   2   10.22    1.01
   0  -6  -2   10.58    1.21
   0  -6  -2   12.10    1.09
   0  -6  -2   10.68    1.22
  -2   6   3    6.39    0.79
  -2   6   3    5.71    0.78
  -2   6   3    6.09    0.53
  -2   6   3    6.09    1.06
  -2   6   3    6.25    0.77
   2  -6  -3    6.07    0.67
   2  -6  -3    7.50    1.16
   2  -6  -3    8.28    1.30
   2  -6  -3    5.53    0.80
   2  -6  -3    5.97    0.54
  -4   6   4    0.10    0.37
  -4   6   4    0.17    0.35
  -4   6   4    0.41    0.46
  -4   6   4    0.58    0.37
  -4   6   4    0.37    0.38
   4  -6  -4    0.22    0.35
   4  -6  -4    0.27    0.39
   4  -6  -4    0.75    0.47
   4  -6  -4    0.51    0.54
  -6   6   5    1.10    0.74
  -6   6   5    0.88    0.70
  -6   6   5    0.14    0.43
  -6   6   5   -0.17    0.40
   6  -6  -5    0.20    0.76
   6  -6  -5   -0.55    0.45
   6  -6  -5   -0.36    0.57
   6  -6  -5    0.80    0.50
  -8   6   6   -1.11    0.51
  -8   6   6    0.59    0.74
   8  -6  -6    0.33    0.77
   8  -6  -6    0.04    0.69
   5   7  -1    2.65    1.12
   5   7  -1    1.91    1.12
   5   7  -1    4.50    1.35
  -5  -7   1    2.95    1.24
  -5  -7   1    2.04    1.04
   3   7   0    1.30    0.81
   3   7   0    4.16    1.07
   3   7   0    2.03    0.82
   3   7   0    1.81    0.97
  -3  -7   0    2.09    0.88
  -3  -7   0    1.65    0.73
  -3  -7   0    4.76    1.40
   1   7   1    1.55    0.65
   1   7   1    1.68    0.42
   1   7   1    2.04    0.71
   1   7   1    2.00    0.68
   1   7   1    2.06    0.67
  -1  -7  -1    2.19    0.83
  -1  -7  -1    1.08    0.48
  -1  -7  -1    2.42    0.77
  -1  -7  -1    1.92    0.80
  -1  -7  -1    0.83    0.47
  -1   7   2    5.30    1.06
  -1   7   2    5.85    0.94
  -1   7   2    5.67    0.99
  -1   7   2    4.42    0.88
  -1   7   2    5.39    0.94
   1  -7  -2    5.11    1.07
   1  -7  -2    6.67    1.25
   1  -7  -2    7.12    1.01
   1  -7  -2    5.27    1.11
   1  -7  -2    4.13    0.59
  -3   7   3    0.53    0.40
  -3   7   3    0.06    0.33
  -3   7   3   -0.12    0.25
  -3   7   3    0.00    0.37
  -3   7   3    0.57    0.39
   3  -7  -3    0.80    0.54
   3  -7  -3    0.43    0.42
   3  -7  -3    0.86    0.47
   3  -7  -3    1.04    0.44
  -5   7   4    9.78    1.20
  -5   7   4    8.43    1.03
  -5   7   4    8.94    0.96
  -5   7   4    9.00    1.57
   5  -7  -4    8.63    0.94
   5  -7  -4    9.13    1.17
   5  -7  -4    9.04    1.14
  -7   7   5    2.25    1.09
  -7   7   5    2.69    1.03
  -7   7   5    1.94    0.73
  -7   7   5    2.00    0.91
   7  -7  -5    1.48    0.38
   7  -7  -5    2.62    1.01
   7  -7  -5    0.02    0.95
   7  -7  -5    2.84    0.94
  -9   7   6    3.40    1.32
  -9   7   6    2.07    1.38
   9  -7  -6    2.85    1.32
   9  -7  -6    3.67    1.22
   4   8  -1    1.34    0.84
   4   8  -1    0.95    0.95
  -4  -8   1    0.86    1.03
  -4  -8   1    1.56    1.13
  -4  -8   1    2.80    1.15
   2   8   0    1.11    0.70
   2   8   0    0.55    0.72
   2   8   0    0.66    0.70
  -2  -8   0    0.87    0.62
  -2  -8   0    0.69    0.63
  -2  -8   0    1.47    1.19
  -2  -8   0   -0.13    0.75
   0   8   1    0.77    0.67
   0   8   1    0.77    0.46
   0   8   1    0.49    0.47
   0   8   1    0.81    0.44
   0  -8  -1    0.88    0.58
   0  -8  -1    0.51    0.46
   0  -8  -1    1.82    0.75
   0  -8  -1    0.51    0.44
   0  -8  -1    1.60    0.70
  -2   8   2    6.32    0.83
  -2   8   2    8.75    1.12
  -2   8   2    6.18    0.80
  -2   8   2    6.41    0.93
  -2   8   2    5.00    0.68
  -2   8   2    7.54    0.95
   2  -8  -2    5.83    0.72
   2  -8  -2    7.47    1.27
   2  -8  -2   10.11    1.65
   2  -8  -2    6.35    0.76
  -4   8   3    6.86    1.30
  -4   8   3    4.11    0.90
  -4   8   3    6.45    1.22
  -4   8   3    5.73    0.98
   4  -8  -3    5.64    1.03
   4  -8  -3    5.49    1.31
   4  -8  -3    5.42    1.22
  -6   8   4    7.28    1.49
  -6   8   4    6.21    1.14
  -6   8   4    7.46    1.34
  -6   8   4    9.26    1.67
  -6   8   4    6.04    1.11
   6  -8  -4    5.94    0.83
   6  -8  -4    9.50    1.81
   6  -8  -4    7.41    0.89
   6  -8  -4    7.86    1.58
  -8   8   5    0.62    0.83
  -8   8   5    0.04    0.54
  -8   8   5    0.94    0.86
   8  -8  -5   -1.02    0.66
   8  -8  -5    1.10    0.82
   3   9  -1    0.26    0.76
   3   9  -1    0.00    0.88
   3   9  -1   -1.22    0.83
  -3  -9   1   -1.40    0.89
  -3  -9   1    0.41    1.00
   1   9   0    0.89    0.59
   1   9   0    0.11    0.38
   1   9   0    0.21    0.31
   1   9   0    0.42    0.78
  -1  -9   0    0.12    0.76
  -1  -9   0    0.47    0.63
  -1  -9   0    0.25    0.52
  -1   9   1    2.40    0.76
  -1   9   1    2.16    0.78
  -1   9   1    2.29    0.66
  -1   9   1    2.67    0.72
  -1   9   1    1.90    0.81
   1  -9  -1    2.57    0.94
   1  -9  -1    1.89    0.73
   1  -9  -1    3.43    0.98
  -3   9   2   35.47    2.72
  -3   9   2   30.74    2.31
  -3   9   2   36.26    2.54
  -3   9   2   35.29    2.61
  -3   9   2   38.77    2.42
   3  -9  -2   35.25    2.60
   3  -9  -2   34.61    2.68
   3  -9  -2   29.52    2.02
   3  -9  -2   33.62    2.71
   3  -9  -2   32.75    2.04
  -5   9   3    5.76    0.85
  -5   9   3    6.27    1.43
  -5   9   3    6.09    1.37
  -5   9   3    8.45    1.41
   5  -9  -3    8.55    1.66
   5  -9  -3    8.36    1.52
   5  -9  -3    7.49    1.26
  -7   9   4    1.04    1.07
  -7   9   4    1.37    0.84
  -7   9   4    1.50    0.73
   7  -9  -4    0.70    0.87
   7  -9  -4    1.03    0.54
   7  -9  -4   -0.21    0.94
   2  10  -1    1.38    0.77
  -2 -10   1    2.10    0.98
  -2 -10   1   -0.67    0.87
  -2 -10   1    1.29    1.01
   0  10   0    4.49    0.93
   0  10   0    5.42    1.14
   0  10   0    5.30    0.90
   0  10   0    5.38    1.34
   0 -10   0    5.06    1.34
   0 -10   0    4.81    1.17
   0 -10   0    5.20    1.22
  -2  10   1    0.16    0.57
  -2  10   1    0.63    0.75
  -2  10   1    0.04    0.59
  -2  10   1   -0.03    0.53
   2 -10  -1    0.67    0.75
   2 -10  -1    0.01    1.00
   2 -10  -1    1.13    0.95
   2 -10  -1    0.41    0.53
  -4  10   2    4.55    1.08
  -4  10   2    3.68    1.03
  -4  10   2    3.82    1.19
  -4  10   2    4.21    0.85
   4 -10  -2    4.52    1.18
   4 -10  -2    5.07    1.16
   4 -10  -2    3.34    1.08
  -6  10   3    0.70    0.69
  -6  10   3    1.18    1.02
   6 -10  -3    1.15    0.69
   6 -10  -3    2.97    1.32
   6 -10  -3    2.51    1.07
  -1  11   0   -1.03    0.58
  -1  11   0    0.42    0.73
  -1  11   0    2.31    1.22
  -1  11   0    0.37    0.68
   1 -11   0   -0.30    0.92
   1 -11   0    0.91    0.79
   1 -11   0    0.34    0.73
  -3  11   1   -0.02    0.72
  -3  11   1    1.76    0.61
  -3  11   1    1.54    0.90
  -3  11   1    0.47    0.66
  -3  11   1    0.01    0.93
   3 -11  -1   -0.05    0.72
   3 -11  -1    0.66    0.66
   3 -11  -1   -0.42    0.87
   3 -11  -1    1.24    1.07
  -5  11   2    1.34    0.96
  -5  11   2   -0.12    0.50
  -5  11   2    0.58    0.63
   5 -11  -2    2.70    1.14
   5 -11  -2    1.10    0.81
   5 -11  -2   -1.26    0.86
   4  -9   8    1.79    1.05
   4  -9   8    3.26    0.94
   4  -9   8    1.69    1.03
   4  -9   8    2.37    0.80
   4  -9   8    1.93    0.92
   4  -9   8    0.69    0.86
  -4   9  -8    1.48    0.53
  -4   9  -8    0.73    0.95
  -4   9  -8    1.33    0.71
  -4   9  -8    2.33    0.57
   2  -9   9    4.42    1.30
   2  -9   9    3.51    0.94
   2  -9   9    3.65    1.13
   2  -9   9    4.46    1.28
   2  -9   9    1.32    0.74
  -2   9  -9    1.75    0.52
  -2   9  -9    2.52    1.04
  -2   9  -9    2.60    0.63
  -2   9  -9    1.11    0.92
   0  -9  10   -0.25    0.74
   0  -9  10    1.01    0.70
   0  -9  10    1.01    0.65
   0  -9  10    1.04    0.80
   0   9 -10    1.02    0.71
   0   9 -10   -0.26    0.68
   0   9 -10    0.09    0.57
   0   9 -10    0.55    0.75
   7  -8   6    3.86    1.30
   7  -8   6    3.86    0.98
   7  -8   6    6.12    1.32
   7  -8   6    6.12    1.53
  -7   8  -6    6.31    1.66
  -7   8  -6    2.34    1.01
  -7   8  -6    3.48    0.91
   5  -8   7   -0.76    0.45
   5  -8   7   -0.01    0.73
   5  -8   7    0.81    0.92
  -5   8  -7    0.51    0.47
  -5   8  -7   -0.06    0.50
  -5   8  -7   -0.18    0.45
  -5   8  -7    0.08    0.57
   3  -8   8    0.37    0.48
   3  -8   8   -0.66    0.53
   3  -8   8    0.34    0.76
   3  -8   8    0.26    0.61
   3  -8   8    0.43    0.72
  -3   8  -8   -1.13    0.54
  -3   8  -8    0.56    0.37
  -3   8  -8    0.56    0.63
  -3   8  -8   -0.09    0.38
  -3   8  -8   -0.05    0.63
   1  -8   9    0.85    0.75
   1  -8   9    0.09    0.53
   1  -8   9    1.57    0.74
   1  -8   9    0.63    0.63
  -1   8  -9   -0.11    0.33
  -1   8  -9    1.60    0.82
  -1   8  -9    0.63    0.50
  -1   8  -9    0.54    0.57
  -1  -8  10    4.28    1.35
  -1  -8  10    3.31    1.18
  -1  -8  10    4.08    0.94
  -1  -8  10    3.83    0.97
   1   8 -10    5.46    1.31
   1   8 -10    2.86    0.79
   1   8 -10    2.90    1.01
   1   8 -10    2.61    0.81
   6  -7   6   -0.64    0.39
   6  -7   6    0.83    0.87
  -6   7  -6   -0.30    0.51
  -6   7  -6    0.93    0.65
  -6   7  -6    0.28    0.73
  -6   7  -6   -0.25    0.56
   4  -7   7    0.62    0.72
   4  -7   7    0.77    0.68
  -4   7  -7    0.78    0.37
  -4   7  -7   -0.07    0.60
  -4   7  -7    1.57    0.40
  -4   7  -7    0.92    0.63
   2  -7   8    1.87    0.58
   2  -7   8    2.21    0.85
   2  -7   8    2.28    0.88
   2  -7   8    3.62    0.66
   2  -7   8    2.85    0.94
  -2   7  -8    2.31    0.75
  -2   7  -8    3.56    1.11
  -2   7  -8    2.96    0.60
  -2   7  -8    2.08    0.86
  -2   7  -8    2.83    0.59
   0  -7   9    0.79    0.66
   0  -7   9    0.89    0.70
   0  -7   9    1.36    0.58
   0   7  -9    0.36    0.50
   0   7  -9    1.57    0.67
   0   7  -9    0.74    0.50
   0   7  -9    0.58    0.46
   0   7  -9    1.50    0.70
  -2  -7  10   -0.01    0.92
  -2  -7  10    0.87    0.98
  -2  -7  10    0.16    0.51
   2   7 -10    0.98    0.90
   2   7 -10    0.73    0.63
   2   7 -10   -0.42    0.51
   2   7 -10    1.17    0.84
   7  -6   5   -0.62    0.62
   7  -6   5   -0.60    0.78
   7  -6   5    0.40    0.62
  -7   6  -5   -0.89    0.72
  -7   6  -5   -0.74    0.71
  -7   6  -5    0.41    0.57
   5  -6   6    0.57    0.31
   5  -6   6   -0.01    0.23
   5  -6   6    0.06    0.39
   5  -6   6   -0.24    0.48
   5  -6   6   -1.00    0.48
  -5   6  -6    0.68    0.42
  -5   6  -6    0.95    0.50
  -5   6  -6    0.19    0.50
   3  -6   7    0.28    0.41
   3  -6   7    0.19    0.61
   3  -6   7    0.17    0.40
   3  -6   7    0.09    0.38
   3  -6   7    0.08    0.46
  -3   6  -7    0.93    0.48
  -3   6  -7    0.24    0.32
  -3   6  -7   -0.03    0.62
  -3   6  -7    0.04    0.31
  -3   6  -7    0.23    0.49
   1  -6   8    2.53    0.85
   1  -6   8    1.26    0.48
   1  -6   8    2.82    0.56
   1  -6   8    2.25    0.81
   1  -6   8    2.73    0.79
  -1   6  -8    1.43    0.47
  -1   6  -8    2.09    0.69
  -1   6  -8    2.08    0.53
  -1   6  -8    2.06    0.56
  -1   6  -8    2.95    0.92
  -1   6  -8    2.36    0.91
  -1  -6   9    4.97    1.16
  -1  -6   9    4.78    0.91
  -1  -6   9    4.06    0.88
   1   6  -9    6.82    0.86
   1   6  -9    3.67    0.84
   1   6  -9    3.84    1.00
   1   6  -9    4.20    0.83
   1   6  -9    4.12    1.22
  -3  -6  10   -0.13    0.41
  -3  -6  10    1.46    0.83
  -3  -6  10   -0.29    0.49
  -3  -6  10    0.12    0.85
   3   6 -10    1.29    0.79
   3   6 -10    1.06    0.69
   3   6 -10    0.89    0.60
   8  -5   4    0.83    0.76
   8  -5   4   -0.62    0.77
   8  -5   4    0.08    0.73
  -8   5  -4    0.16    0.75
  -8   5  -4    0.01    0.67
   6  -5   5    3.63    0.82
   6  -5   5    5.00    1.14
   6  -5   5    4.63    1.21
  -6   5  -5    0.49    0.52
  -6   5  -5    1.96    0.66
  -6   5  -5    2.13    0.57
  -6   5  -5    1.01    0.53
   4  -5   6   20.26    1.88
   4  -5   6   19.84    1.41
   4  -5   6   18.96    1.37
   4  -5   6   19.60    1.25
   4  -5   6   18.04    1.22
   4  -5   6   17.98    1.77
  -4   5  -6   18.10    1.46
  -4   5  -6   19.94    1.62
  -4   5  -6   19.34    1.42
  -4   5  -6   18.86    1.73
   2  -5   7    2.14    0.78
   2  -5   7    3.30    0.52
   2  -5   7    2.62    0.69
   2  -5   7    3.42    0.53
   2  -5   7    3.72    0.87
  -2   5  -7    2.88    0.91
  -2   5  -7    4.53    1.02
  -2   5  -7    3.10    0.72
  -2   5  -7    3.36    0.67
  -2   5  -7    2.83    0.55
   0  -5   8    0.46    0.34
   0  -5   8    0.81    0.59
   0  -5   8    0.88    0.51
   0  -5   8    1.16    0.59
   0   5  -8    1.02    0.58
   0   5  -8    0.73    0.37
   0   5  -8    0.69    0.36
   0   5  -8    0.46    0.47
   0   5  -8    0.88    0.53
   0   5  -8    1.07    0.45
  -2  -5   9    4.05    0.84
  -2  -5   9    6.00    1.26
   2   5  -9    3.13    1.06
   2   5  -9    3.01    0.69
   2   5  -9    4.12    0.87
  -4  -5  10    0.22    0.38
  -4  -5  10   -0.55    0.43
  -4  -5  10    0.54    0.65
  -4  -5  10   -1.49    0.71
   4   5 -10   -0.06    0.55
   4   5 -10    0.70    0.87
   4   5 -10    0.23    0.50
   4   5 -10   -0.36    0.59
   7  -4   4    3.13    0.99
   7  -4   4    2.61    0.82
   7  -4   4    2.58    0.89
   7  -4   4    2.78    1.01
  -7   4  -4    1.70    0.62
  -7   4  -4    4.36    1.23
  -7   4  -4    2.34    1.06
  -7   4  -4    3.95    0.97
   5  -4   5   -0.21    0.30
   5  -4   5   -0.25    0.37
   5  -4   5    0.39    0.43
   5  -4   5   -0.49    0.34
  -5   4  -5    0.74    0.44
  -5   4  -5    0.10    0.34
  -5   4  -5   -1.10    0.58
  -5   4  -5    0.14    0.42
   3  -4   6    0.29    0.23
   3  -4   6   -0.31    0.40
   3  -4   6   -0.13    0.23
   3  -4   6    0.50    0.28
   3  -4   6    0.92    0.59
  -3   4  -6    0.29    0.32
  -3   4  -6    0.02    0.40
  -3   4  -6   -0.08    0.24
  -3   4  -6    0.55    0.52
  -3   4  -6   -0.26    0.20
   1  -4   7    3.66    0.93
   1  -4   7    3.53    0.38
   1  -4   7    3.92    0.86
   1  -4   7    5.28    0.87
  -1   4  -7    3.81    0.87
  -1   4  -7    4.19    0.60
  -1   4  -7    3.91    0.89
  -1   4  -7    3.94    0.64
  -1   4  -7    4.42    0.80
  -1  -4   8    0.25    0.46
  -1  -4   8   -0.01    0.37
  -1  -4   8    0.36    0.49
  -1  -4   8   -0.03    0.29
  -1  -4   8    0.14    0.29
   1   4  -8    0.50    0.38
   1   4  -8    0.01    0.30
   1   4  -8    0.30    0.27
   1   4  -8   -0.02    0.37
   1   4  -8    0.12    0.36
  -3  -4   9   15.02    1.34
  -3  -4   9   15.93    1.33
  -3  -4   9   15.79    1.64
  -3  -4   9   17.12    1.74
   3   4  -9   17.26    1.70
   3   4  -9   17.11    1.45
   3   4  -9   15.08    1.49
   3   4  -9   18.25    1.97
   3   4  -9   14.05    1.49
  -5  -4  10    2.38    0.95
  -5  -4  10    0.85    0.94
  -5  -4  10    1.92    0.61
   5   4 -10    0.91    0.84
   5   4 -10    2.75    0.91
   5   4 -10    1.70    0.76
   5   4 -10    2.06    0.91
   8  -3   3    0.82    0.85
   8  -3   3    1.32    0.86
   8  -3   3    0.96    0.70
  -8   3  -3    0.86    1.02
  -8   3  -3   -0.41    0.67
   6  -3   4    0.06    0.40
   6  -3   4   -0.67    0.39
   6  -3   4   -0.50    0.42
   6  -3   4    0.39    0.59
   6  -3   4    0.17    0.58
  -6   3  -4   -0.14    0.45
  -6   3  -4   -0.01    0.38
  -6   3  -4    0.19    0.54
  -6   3  -4   -0.09    0.61
   4  -3   5    1.66    0.55
   4  -3   5    2.15    0.81
   4  -3   5    1.92    0.40
   4  -3   5    2.23    0.54
  -4   3  -5    2.42    0.52
  -4   3  -5    2.88    0.81
  -4   3  -5    4.35    0.82
  -4   3  -5    2.98    0.60
  -4   3  -5    3.24    0.70
   2  -3   6    1.62    0.24
   2  -3   6    0.88    0.56
   2  -3   6    0.97    0.24
   2  -3   6    1.67    0.25
   2  -3   6    1.73    0.41
  -2   3  -6    1.41    0.48
  -2   3  -6    2.04    0.43
  -2   3  -6    1.81    0.48
  -2   3  -6    1.68    0.62
  -2   3  -6    2.29    0.64
   0  -3   7   37.64    2.13
   0  -3   7   36.98    2.38
   0  -3   7   35.07    2.41
   0  -3   7   34.76    2.53
   0   3  -7   40.40    2.08
   0   3  -7   35.84    2.30
   0   3  -7   38.96    2.43
   0   3  -7   38.37    2.57
   0   3  -7   35.22    2.50
   0   3  -7   35.92    2.32
  -2  -3   8    2.15    0.51
  -2  -3   8    2.82    0.78
  -2  -3   8    2.23    0.45
  -2  -3   8    0.95    0.51
   2   3  -8    1.49    0.59
   2   3  -8    2.25    0.64
   2   3  -8    1.40    0.49
   2   3  -8    1.13    0.44
   2   3  -8    1.89    0.66
   2   3  -8    1.52    0.47
  -4  -3   9   -0.36    0.55
  -4  -3   9    0.35    0.53
  -4  -3   9    0.39    0.45
  -4  -3   9    0.78    0.53
   4   3  -9    0.95    0.72
   4   3  -9    0.77    0.68
   4   3  -9   -0.18    0.53
   4   3  -9    0.86    0.58
   4   3  -9    1.23    0.68
  -6  -3  10    0.69    0.86
  -6  -3  10    0.97    0.57
  -6  -3  10   -0.07    0.77
  -6  -3  10    0.56    0.63
   6   3 -10   -0.54    0.69
   6   3 -10    0.39    0.66
   6   3 -10   -1.08    0.60
   6   3 -10   -0.72    0.79
   7  -2   3    0.75    0.52
   7  -2   3   -0.18    0.44
   7  -2   3   -0.31    0.73
   7  -2   3    0.34    0.67
   7  -2   3    0.50    0.62
  -7   2  -3    0.53    0.65
  -7   2  -3   -0.26    0.47
  -7   2  -3   -0.02    0.45
  -7   2  -3   -1.69    0.96
   5  -2   4    1.87    0.78
   5  -2   4    3.22    0.86
   5  -2   4    1.75    0.64
   5  -2   4    0.98    0.50
  -5   2  -4    2.94    0.94
  -5   2  -4    1.46    0.67
  -5   2  -4    1.60    0.55
  -5   2  -4    1.87    0.60
   3  -2   5    1.79    0.69
   3  -2   5    1.11    0.12
   3  -2   5    0.64    0.46
   3  -2   5    2.23    0.41
   3  -2   5    1.55    0.52
   3  -2   5    1.36    0.37
  -3   2  -5    1.57    0.58
  -3   2  -5    0.80    0.46
  -3   2  -5    0.97    0.13
  -3   2  -5    2.02    0.60
  -3   2  -5    1.19    0.30
   1  -2   6    0.52    0.28
   1  -2   6    0.40    0.40
   1  -2   6    0.33    0.27
   1  -2   6    0.54    0.35
  -1   2  -6    0.67    0.38
  -1   2  -6    0.00    0.25
  -1   2  -6    0.58    0.25
  -1   2  -6   -0.70    0.37
  -1  -2   7    0.73    0.43
  -1  -2   7    0.04    0.30
  -1  -2   7    1.27    0.54
  -1  -2   7    0.61    0.32
  -1  -2   7    0.57    0.25
   1   2  -7    0.79    0.51
   1   2  -7    1.00    0.26
   1   2  -7    1.15    0.61
   1   2  -7    0.93    0.46
   1   2  -7    0.78    0.41
   1   2  -7    0.38    0.28
   1   2  -7    0.92    0.43
  -3  -2   8    3.19    0.86
  -3  -2   8    1.56    0.55
  -3  -2   8    2.03    0.59
  -3  -2   8    2.59    0.64
  -3  -2   8    1.54    0.82
   3   2  -8    2.57    0.72
   3   2  -8    1.75    0.63
   3   2  -8    1.11    0.67
   3   2  -8    1.87    0.76
   3   2  -8    1.06    0.43
   3   2  -8    1.94    0.55
  -5  -2   9   -0.59    0.46
  -5  -2   9    0.09    0.51
  -5  -2   9   -0.13    0.59
   5   2  -9    0.08    0.45
   5   2  -9    0.25    0.43
   5   2  -9   -0.24    0.43
   5   2  -9   -0.20    0.54
   5   2  -9   -0.43    0.67
  -7  -2  10   -0.54    0.70
  -7  -2  10    0.68    0.70
  -7  -2  10    0.17    0.87
   7   2 -10    0.89    0.98
   7   2 -10    0.93    0.85
   7   2 -10    0.72    0.65
   7   2 -10    1.84    0.94
   8  -1   2    4.88    1.26
   8  -1   2    3.34    1.12
   8  -1   2    2.71    1.00
  -8   1  -2    3.42    1.06
  -8   1  -2    4.75    1.53
   6  -1   3    2.24    0.79
   6  -1   3    3.28    0.85
   6  -1   3    4.04    0.98
   6  -1   3    2.83    0.80
  -6   1  -3    3.73    0.94
  -6   1  -3    3.50    0.98
  -6   1  -3    3.09    1.04
   4  -1   4    0.29    0.45
   4  -1   4    1.05    0.48
   4  -1   4    0.35    0.38
   4  -1   4    1.54    0.47
   4  -1   4    0.91    0.44
  -4   1  -4    1.15    0.47
  -4   1  -4    1.84    0.73
  -4   1  -4    1.34    0.47
  -4   1  -4    0.65    0.48
   2  -1   5    2.52    0.37
   2  -1   5    3.28    0.55
   2  -1   5    2.61    0.64
   2  -1   5    1.96    0.27
   2  -1   5    1.80    0.69
   2  -1   5    3.13    0.64
  -2   1  -5    2.55    0.54
  -2   1  -5    1.21    0.69
  -2   1  -5    2.70    0.34
  -2   1  -5    2.98    0.74
  -2   1  -5    2.94    0.61
  -2   1  -5    2.27    0.54
   0  -1   6   13.86    1.22
   0  -1   6   13.07    1.15
   0  -1   6   14.61    1.21
   0  -1   6   13.74    1.23
   0  -1   6   15.93    1.12
   0  -1   6   14.00    1.09
   0  -1   6   14.13    1.10
   0   1  -6   13.55    1.19
   0   1  -6   13.79    1.11
   0   1  -6   14.69    1.13
   0   1  -6   14.77    1.18
   0   1  -6   13.76    1.16
   0   1  -6   14.94    1.23
  -2  -1   7    5.86    0.84
  -2  -1   7    7.45    0.77
  -2  -1   7    7.33    0.83
  -2  -1   7   10.05    0.93
  -2  -1   7    8.49    0.91
  -2  -1   7    7.88    0.67
   2   1  -7    7.91    0.91
   2   1  -7    6.24    0.81
   2   1  -7    7.35    0.87
   2   1  -7    6.76    0.65
   2   1  -7    5.76    0.74
  -4  -1   8    3.26    0.87
  -4  -1   8    3.96    0.91
  -4  -1   8    4.93    0.91
   4   1  -8    5.48    1.18
   4   1  -8    3.77    0.89
   4   1  -8    3.88    0.80
   4   1  -8    4.35    1.00
   4   1  -8    4.71    1.03
  -6  -1   9    1.62    0.66
  -6  -1   9   -0.33    0.59
  -6  -1   9    0.79    0.59
  -6  -1   9    0.63    0.69
   6   1  -9    1.11    0.85
   6   1  -9    0.92    0.59
   6   1  -9    1.57    0.65
   6   1  -9    1.12    0.82
   7   0   2    1.34    0.63
   7   0   2   -0.58    0.61
   7   0   2    0.20    0.45
   7   0   2    1.03    0.73
  -7   0  -2    0.31    0.66
  -7   0  -2    0.28    0.50
  -7   0  -2    0.10    0.90
   5   0   3    0.04    0.48
   5   0   3    0.34    0.45
   5   0   3    0.29    0.43
   5   0   3    0.75    0.51
  -5   0  -3    0.68    0.48
  -5   0  -3    0.18    0.49
  -5   0  -3    0.07    0.44
  -5   0  -3   -0.13    0.55
   3   0   4    6.57    0.77
   3   0   4    5.10    0.71
   3   0   4    5.16    0.60
   3   0   4    6.05    0.70
  -3   0  -4    7.51    0.81
  -3   0  -4    5.46    0.43
  -3   0  -4    5.93    0.43
  -3   0  -4    5.47    0.97
  -3   0  -4    6.33    0.64
  -3   0  -4    6.44    0.83
  -3   0  -4    5.58    0.69
   1   0   5    1.42    0.33
   1   0   5    1.69    0.39
   1   0   5    0.80    0.32
   1   0   5    2.27    0.48
  -1   0  -5    0.13    0.39
  -1   0  -5    1.32    0.37
  -1   0  -5    1.37    0.43
  -1   0  -5    1.61    0.42
  -1   0  -5    1.03    0.26
  -1   0   6   11.89    0.98
  -1   0   6   10.77    1.02
  -1   0   6   11.89    1.09
  -1   0   6   11.05    1.01
  -1   0   6   10.28    1.07
  -1   0   6   10.83    0.96
  -1   0   6   11.76    1.05
  -1   0   6   10.80    0.73
   1   0  -6   10.61    1.02
   1   0  -6   10.21    0.97
   1   0  -6   11.54    0.99
   1   0  -6   11.78    1.06
   1   0  -6   11.06    0.97
   1   0  -6   11.52    0.75
   1   0  -6   11.28    1.01
  -3   0   7   26.26    1.98
  -3   0   7   27.81    1.94
  -3   0   7   29.92    2.03
  -3   0   7   29.75    2.01
   3   0  -7   28.73    1.88
   3   0  -7   31.06    2.13
   3   0  -7   27.62    2.04
   3   0  -7   33.32    2.33
   3   0  -7   27.93    2.07
  -5   0   8    6.04    1.19
  -5   0   8    6.71    1.15
  -5   0   8    7.30    1.24
  -5   0   8    6.98    1.22
   5   0  -8    7.33    1.22
   5   0  -8    7.15    1.32
   5   0  -8    6.44    1.23
   5   0  -8    7.41    1.23
  -7   0   9    3.40    1.03
  -7   0   9    5.15    1.04
  -7   0   9    5.35    1.18
  -7   0   9    2.35    0.77
  -7   0   9    3.49    0.93
   7   0  -9    2.80    0.95
   7   0  -9    2.70    0.71
   7   0  -9    2.10    0.71
   7   0  -9    2.62    0.96
   8   1   1   -0.18    0.64
   8   1   1    0.03    0.68
   8   1   1    2.58    0.94
  -8  -1  -1    0.37    0.91
  -8  -1  -1    0.09    0.69
   6   1   2    1.20    0.59
   6   1   2    0.84    0.63
   6   1   2    0.70    0.58
   6   1   2    0.53    0.55
  -6  -1  -2   -0.19    0.38
  -6  -1  -2    0.11    0.36
  -6  -1  -2    0.80    0.56
  -6  -1  -2   -0.01    0.37
  -6  -1  -2    0.80    0.54
   4   1   3    5.80    0.77
   4   1   3    5.93    0.80
   4   1   3    6.11    0.85
   4   1   3    5.28    0.70
  -4  -1  -3    6.60    0.89
  -4  -1  -3    5.74    0.54
  -4  -1  -3    6.83    1.12
  -4  -1  -3    7.50    1.31
  -4  -1  -3    5.50    0.56
  -4  -1  -3    6.69    0.83
   2   1   4    0.72    0.27
   2   1   4    0.23    0.24
   2   1   4    0.43    0.35
   2   1   4    0.08    0.20
   2   1   4    0.27    0.33
   2   1   4    0.04    0.23
   2   1   4    0.73    0.31
   2   1   4   -0.18    0.26
  -2  -1  -4   -0.11    0.23
  -2  -1  -4    0.80    0.26
  -2  -1  -4    0.54    0.21
  -2  -1  -4    0.74    0.37
  -2  -1  -4    0.84    0.43
  -2  -1  -4    0.18    0.23
  -2  -1  -4    1.50    0.43
   0   1   5   24.25    1.69
   0   1   5   23.23    1.75
   0   1   5   23.47    1.55
   0   1   5   25.23    1.42
   0   1   5   23.93    1.59
   0   1   5   24.25    1.67
   0   1   5   22.70    1.64
   0   1   5   25.83    1.71
   0  -1  -5   24.42    1.63
   0  -1  -5   22.97    1.68
   0  -1  -5   24.31    1.71
   0  -1  -5   25.12    1.59
   0  -1  -5   23.05    1.39
   0  -1  -5   22.92    1.67
   0  -1  -5   24.08    1.65
   0  -1  -5   25.67    1.42
  -2   1   6   16.05    1.25
  -2   1   6   15.98    1.16
  -2   1   6   16.30    1.11
  -2   1   6   17.11    1.35
  -2   1   6   15.52    1.25
  -2   1   6   14.72    1.34
  -2   1   6   14.62    1.24
  -2   1   6   15.94    1.28
  -2   1   6   16.15    1.16
   2  -1  -6   14.84    1.28
   2  -1  -6   15.35    1.14
   2  -1  -6   14.97    1.29
   2  -1  -6   16.18    1.11
   2  -1  -6   14.79    1.33
   2  -1  -6   15.65    1.26
   2  -1  -6   16.80    1.31
  -4   1   7    1.48    0.55
  -4   1   7    2.08    0.68
  -4   1   7    2.12    0.60
  -4   1   7    1.51    0.59
  -4   1   7    1.44    0.49
  -4   1   7    1.84    0.67
  -4   1   7    1.81    0.56
   4  -1  -7    1.38    0.57
   4  -1  -7    2.18    0.68
   4  -1  -7    1.07    0.52
   4  -1  -7    1.86    0.54
  -6   1   8    0.44    0.52
  -6   1   8    1.71    0.72
  -6   1   8    1.28    0.58
  -6   1   8    0.70    0.62
   6  -1  -8    1.34    0.70
   6  -1  -8    2.07    0.67
   6  -1  -8   -0.30    0.61
   6  -1  -8    1.44    0.76
  -8   1   9   -0.08    0.84
  -8   1   9   -0.51    0.69
  -8   1   9    0.88    0.84
  -8   1   9   -0.01    0.88
  -8   1   9    0.01    0.70
   8  -1  -9   -0.68    0.72
   8  -1  -9    0.76    0.59
   8  -1  -9    1.89    0.82
   8  -1  -9   -1.21    0.79
   7   2   1    2.46    0.85
   7   2   1    1.87    0.67
   7   2   1    0.25    0.61
  -7  -2  -1    0.90    0.98
  -7  -2  -1    0.81    0.66
  -7  -2  -1    2.54    0.78
   5   2   2    0.90    0.67
   5   2   2    1.25    0.60
   5   2   2    1.91    0.69
   5   2   2    0.78    0.50
  -5  -2  -2    1.66    0.50
  -5  -2  -2    1.11    0.66
  -5  -2  -2    1.29    0.76
  -5  -2  -2    3.06    0.79
   3   2   3   15.30    1.36
   3   2   3   15.27    1.33
   3   2   3   15.83    1.24
   3   2   3   15.04    1.30
  -3  -2  -3   14.17    1.22
  -3  -2  -3   13.31    1.36
  -3  -2  -3   15.42    1.12
  -3  -2  -3   16.89    1.16
  -3  -2  -3   15.71    1.44
  -3  -2  -3   16.73    1.46
  -3  -2  -3   15.44    1.35
  -3  -2  -3   14.09    1.27
   1   2   4  113.56    6.00
   1   2   4  112.29    5.78
   1   2   4  108.28    5.95
   1   2   4  109.74    5.96
   1   2   4  112.75    5.98
   1   2   4  111.31    5.78
   1   2   4  110.88    5.91
  -1  -2  -4  108.44    5.75
  -1  -2  -4  107.76    5.92
  -1  -2  -4  109.62    5.77
  -1  -2  -4  114.22    6.01
  -1  -2  -4  103.53    5.90
  -1  -2  -4  105.93    5.96
  -1   2   5   18.89    1.39
  -1   2   5   19.66    1.47
  -1   2   5   17.41    1.37
  -1   2   5   15.32    1.32
  -1   2   5   15.96    1.30
   1  -2  -5   17.46    1.34
   1  -2  -5   19.89    1.44
   1  -2  -5   18.71    1.23
   1  -2  -5   18.87    1.39
   1  -2  -5   17.91    1.20
   1  -2  -5   18.19    1.34
   1  -2  -5   18.48    1.20
   1  -2  -5   17.70    1.38
  -3   2   6    3.87    0.58
  -3   2   6    4.37    0.70
  -3   2   6    3.79    0.83
  -3   2   6    3.87    0.82
  -3   2   6    3.16    0.74
  -3   2   6    2.86    0.43
  -3   2   6    5.28    0.83
  -3   2   6    3.41    0.73
   3  -2  -6    4.45    0.77
   3  -2  -6    2.79    0.70
   3  -2  -6    4.85    0.82
   3  -2  -6    4.52    0.78
  -5   2   7   11.05    1.23
  -5   2   7    9.19    0.99
  -5   2   7   10.37    1.19
  -5   2   7    9.79    1.22
  -5   2   7   10.73    1.27
  -5   2   7   11.84    0.99
  -5   2   7    9.96    0.95
   5  -2  -7   12.33    1.29
   5  -2  -7   10.41    1.12
   5  -2  -7   10.19    1.13
   5  -2  -7   10.18    0.99
  -7   2   8    0.08    0.67
  -7   2   8    0.05    0.66
  -7   2   8    0.31    0.58
  -7   2   8    0.26    0.54
  -7   2   8    0.72    0.54
   7  -2  -8    0.64    0.47
   7  -2  -8   -0.20    0.58
   7  -2  -8    1.78    0.79
   7  -2  -8   -0.58    0.56
   6   3   1    0.65    0.51
   6   3   1    1.45    0.84
   6   3   1    0.34    0.49
   6   3   1    0.52    0.58
   6   3   1    2.57    0.90
  -6  -3  -1    0.60    0.60
  -6  -3  -1    0.51    0.58
  -6  -3  -1    0.43    0.59
   4   3   2    0.47    0.39
   4   3   2    0.33    0.53
   4   3   2    0.02    0.37
   4   3   2   -0.04    0.41
   4   3   2    0.13    0.54
  -4  -3  -2    0.34    0.39
  -4  -3  -2    0.19    0.34
  -4  -3  -2    0.38    0.57
  -4  -3  -2    1.04    0.62
  -4  -3  -2   -0.42    0.47
  -4  -3  -2    1.55    0.63
   2   3   3    2.66    0.66
   2   3   3    4.44    0.82
   2   3   3    4.53    0.86
   2   3   3    3.39    0.68
   2   3   3    3.92    0.71
  -2  -3  -3    4.01    0.83
  -2  -3  -3    3.74    1.07
  -2  -3  -3    2.74    0.70
  -2  -3  -3    3.02    0.64
  -2  -3  -3    4.74    0.89
  -2  -3  -3    5.08    0.65
  -2  -3  -3    3.64    0.73
   0   3   4   41.15    2.47
   0   3   4   40.36    2.62
   0   3   4   43.10    2.65
   0   3   4   41.04    2.62
   0   3   4   41.59    2.72
   0   3   4   42.55    2.60
   0   3   4   39.66    2.61
   0   3   4   41.13    2.51
   0  -3  -4   41.72    2.50
   0  -3  -4   43.34    3.17
   0  -3  -4   48.78    2.75
   0  -3  -4   42.87    2.57
   0  -3  -4   42.93    2.51
   0  -3  -4   40.92    2.67
  -2   3   5    1.77    0.56
  -2   3   5    1.99    0.55
  -2   3   5    2.56    0.69
  -2   3   5    2.12    0.56
  -2   3   5    2.32    0.37
  -2   3   5    3.72    0.76
  -2   3   5    1.83    0.54
   2  -3  -5    2.55    0.53
   2  -3  -5    2.30    0.61
   2  -3  -5    2.22    0.59
   2  -3  -5    1.93    0.54
   2  -3  -5    2.65    0.67
   2  -3  -5    1.93    0.54
   2  -3  -5    3.07    0.66
   2  -3  -5    2.07    0.38
  -4   3   6    0.83    0.23
  -4   3   6    1.29    0.51
  -4   3   6    0.37    0.33
  -4   3   6    0.64    0.24
  -4   3   6    1.43    0.56
  -4   3   6    0.72    0.45
  -4   3   6    0.62    0.42
   4  -3  -6    0.61    0.37
   4  -3  -6    0.93    0.43
   4  -3  -6    0.89    0.53
   4  -3  -6    0.51    0.46
  -6   3   7    1.74    0.69
  -6   3   7    0.79    0.46
  -6   3   7    0.88    0.57
  -6   3   7    1.61    0.63
  -6   3   7    1.43    0.56
  -6   3   7    1.07    0.73
   6  -3  -7    1.66    0.74
   6  -3  -7    1.56    0.72
   6  -3  -7    2.02    0.59
   6  -3  -7    0.56    0.54
  -8   3   8   -1.19    0.75
  -8   3   8   -0.43    0.69
  -8   3   8   -0.51    0.55
  -8   3   8   -0.54    0.56
  -8   3   8    0.07    0.75
   8  -3  -8    0.41    0.81
   8  -3  -8    0.10    0.69
   8  -3  -8   -0.45    0.76
   7   4   0    0.62    1.03
   7   4   0    2.34    0.86
  -7  -4   0    1.75    1.27
  -7  -4   0    0.94    1.08
  -7  -4   0    1.53    0.98
   5   4   1    0.64    0.54
   5   4   1    0.61    0.38
   5   4   1   -0.73    0.55
   5   4   1    1.18    0.65
   5   4   1    0.33    0.42
   5   4   1   -0.22    0.54
  -5  -4  -1   -1.22    0.53
  -5  -4  -1    0.32    0.56
  -5  -4  -1    1.02    0.75
  -5  -4  -1   -0.19    0.54
   3   4   2    0.37    0.42
   3   4   2    1.01    0.49
   3   4   2    2.51    0.80
   3   4   2    1.56    0.48
  -3  -4  -2    2.54    0.74
  -3  -4  -2    1.38    0.57
  -3  -4  -2    1.16    0.56
  -3  -4  -2    0.23    0.60
  -3  -4  -2    1.16    0.48
   1   4   3   -0.24    0.22
   1   4   3    0.66    0.30
   1   4   3    0.48    0.37
   1   4   3    0.80    0.42
   1   4   3    1.04    0.38
   1   4   3   -0.04    0.31
  -1  -4  -3    0.35    0.33
  -1  -4  -3    0.84    0.35
  -1  -4  -3    0.05    0.27
  -1  -4  -3   -0.08    0.31
  -1  -4  -3    0.12    0.49
  -1  -4  -3   -0.25    0.30
  -1  -4  -3    0.15    0.25
  -1   4   4   54.01    2.96
  -1   4   4   49.89    3.22
  -1   4   4   49.29    3.21
  -1   4   4   56.55    3.25
  -1   4   4   56.13    3.24
  -1   4   4   52.64    3.18
  -1   4   4   54.03    3.28
  -1   4   4   54.43    3.24
   1  -4  -4   55.28    3.20
   1  -4  -4   56.06    3.27
   1  -4  -4   53.07    3.25
   1  -4  -4   57.33    3.31
   1  -4  -4   52.06    3.12
   1  -4  -4   50.07    3.12
   1  -4  -4   56.59    2.98
  -3   4   5    3.70    0.85
  -3   4   5    2.72    0.65
  -3   4   5    3.31    0.74
  -3   4   5    2.70    0.64
  -3   4   5    2.70    0.76
   3  -4  -5    2.18    0.63
   3  -4  -5    2.07    0.57
   3  -4  -5    3.11    0.80
   3  -4  -5    2.28    0.71
  -5   4   6    4.34    0.86
  -5   4   6    2.69    0.88
  -5   4   6    2.48    0.31
  -5   4   6    3.56    0.84
  -5   4   6    4.46    0.93
  -5   4   6    4.02    1.05
  -5   4   6    2.85    0.29
   5  -4  -6    3.72    0.90
   5  -4  -6    2.20    0.72
   5  -4  -6    4.91    1.09
  -7   4   7    2.20    0.90
  -7   4   7    3.13    0.94
  -7   4   7    2.33    1.14
  -7   4   7    3.32    0.73
  -7   4   7    2.66    0.63
  -7   4   7    2.40    0.94
  -7   4   7    2.47    0.68
   7  -4  -7    3.09    1.04
   7  -4  -7    2.62    0.87
   7  -4  -7    2.48    0.58
   7  -4  -7    3.08    0.90
  -9   4   8   -2.07    0.82
  -9   4   8   -1.38    0.94
  -9   4   8   -0.37    0.86
   9  -4  -8    2.76    1.10
   9  -4  -8    1.84    0.98
   6   5   0    1.04    1.14
   6   5   0    0.66    0.67
  -6  -5   0    0.49    0.92
  -6  -5   0   -0.57    0.66
   4   5   1    0.19    0.50
   4   5   1    0.30    0.44
   4   5   1   -0.02    0.53
   4   5   1   -0.17    0.40
   4   5   1    0.15    0.36
  -4  -5  -1   -0.43    0.51
  -4  -5  -1    0.20    0.64
  -4  -5  -1   -0.31    0.49
  -4  -5  -1    0.63    0.48
   2   5   2    2.47    0.58
   2   5   2    0.74    0.52
   2   5   2    1.03    0.50
   2   5   2    0.14    0.48
   2   5   2    0.91    0.36
  -2  -5  -2    1.23    0.67
  -2  -5  -2    3.32    0.70
  -2  -5  -2    2.87    0.78
  -2  -5  -2    2.46    0.71
  -2  -5  -2    1.58    0.53
   0   5   3    5.99    1.02
   0   5   3    6.59    1.47
   0   5   3    5.01    0.73
   0   5   3    5.72    0.70
   0   5   3    5.68    0.79
   0   5   3    5.34    0.72
   0  -5  -3    5.69    0.97
   0  -5  -3    5.44    0.71
   0  -5  -3    4.35    0.61
   0  -5  -3    5.69    0.99
   0  -5  -3    5.59    0.69
  -2   5   4    2.66    0.67
  -2   5   4    2.50    0.67
  -2   5   4    2.53    0.72
  -2   5   4    1.91    0.58
  -2   5   4    2.79    0.68
   2  -5  -4    1.98    1.00
   2  -5  -4    2.02    0.59
   2  -5  -4    2.30    0.57
   2  -5  -4    2.19    0.63
   2  -5  -4    2.03    0.27
  -4   5   5    3.79    0.74
  -4   5   5    3.36    0.87
  -4   5   5    3.61    1.17
  -4   5   5    3.35    0.94
  -4   5   5    3.09    0.68
   4  -5  -5    2.55    0.62
   4  -5  -5    2.61    0.76
   4  -5  -5    2.50    0.75
   4  -5  -5    2.10    0.65
  -6   5   6   -0.10    0.58
  -6   5   6    0.38    0.40
  -6   5   6    0.52    0.45
  -6   5   6    1.70    0.65
  -6   5   6   -0.09    0.41
   6  -5  -6    1.68    0.65
   6  -5  -6    1.63    0.58
   6  -5  -6    0.95    0.42
   6  -5  -6    1.20    0.73
  -8   5   7   -0.54    0.48
  -8   5   7   -0.30    0.66
  -8   5   7    0.29    0.41
  -8   5   7    1.74    1.03
   8  -5  -7    0.02    0.69
   8  -5  -7    1.19    0.72
   5   6   0    1.41    0.96
   5   6   0    1.30    0.97
   5   6   0    2.54    0.97
  -5  -6   0    0.28    0.73
  -5  -6   0    3.52    1.11
  -5  -6   0    2.07    1.13
   3   6   1    0.56    0.58
   3   6   1    0.36    0.32
   3   6   1    0.47    0.33
   3   6   1   -0.14    0.43
   3   6   1   -0.12    0.33
   3   6   1   -0.03    0.44
   3   6   1    0.02    0.66
  -3  -6  -1    0.64    0.56
  -3  -6  -1    1.10    0.63
  -3  -6  -1    0.02    0.40
  -3  -6  -1    0.21    0.67
   1   6   2   13.26    1.07
   1   6   2   11.92    1.32
   1   6   2   12.34    1.26
   1   6   2   11.29    1.06
   1   6   2    9.83    1.14
  -1  -6  -2   14.50    1.29
  -1  -6  -2   11.98    1.33
  -1  -6  -2   11.57    1.24
  -1  -6  -2   11.28    1.08
  -1  -6  -2   11.25    1.11
  -1   6   3   16.59    1.26
  -1   6   3   18.01    1.51
  -1   6   3   17.57    1.43
  -1   6   3   20.92    1.64
  -1   6   3   17.31    1.46
  -1   6   3   19.23    1.61
   1  -6  -3   14.61    1.53
   1  -6  -3   19.56    1.64
   1  -6  -3   18.13    1.30
   1  -6  -3   19.73    1.67
  -3   6   4    0.46    0.49
  -3   6   4    0.87    0.44
  -3   6   4    0.22    0.39
  -3   6   4    0.81    0.46
   3  -6  -4   -0.24    0.30
   3  -6  -4    0.22    0.38
   3  -6  -4    0.06    0.33
   3  -6  -4    0.14    0.54
  -5   6   5    0.35    0.52
  -5   6   5    0.45    0.43
  -5   6   5    0.07    0.41
  -5   6   5    0.00    0.33
  -5   6   5   -0.07    0.43
   5  -6  -5    0.29    0.64
   5  -6  -5   -0.25    0.38
   5  -6  -5    0.60    0.45
   5  -6  -5   -0.56    0.56
  -7   6   6    1.39    0.78
  -7   6   6    0.20    0.55
  -7   6   6    0.29    0.47
  -7   6   6    0.53    0.89
  -7   6   6    0.75    0.77
   7  -6  -6    0.12    0.28
   7  -6  -6    1.29    0.90
   7  -6  -6    0.29    0.49
   7  -6  -6    0.33    0.72
  -9   6   7    1.01    1.42
  -9   6   7   -0.03    0.92
  -9   6   7   -0.79    0.89
   9  -6  -7   -0.13    1.03
   9  -6  -7    0.09    1.00
   4   7   0    0.89    0.78
   4   7   0    2.37    0.81
   4   7   0    2.71    1.08
  -4  -7   0    2.93    0.98
  -4  -7   0    2.60    1.00
  -4  -7   0    0.25    0.89
   2   7   1    3.31    0.53
   2   7   1    3.21    0.48
   2   7   1    3.25    1.07
   2   7   1    3.65    0.93
  -2  -7  -1    7.62    1.34
  -2  -7  -1    3.03    0.86
  -2  -7  -1    3.76    1.07
  -2  -7  -1    5.37    0.74
  -2  -7  -1    5.48    1.24
   0   7   2    7.19    0.90
   0   7   2    6.70    0.92
   0   7   2    6.84    0.83
   0   7   2    6.90    1.15
   0   7   2    8.30    1.44
   0  -7  -2    7.43    1.03
   0  -7  -2    6.40    0.88
   0  -7  -2    8.14    1.37
   0  -7  -2    6.23    0.78
   0  -7  -2    6.73    0.88
  -2   7   3   -0.50    0.41
  -2   7   3    0.19    0.27
  -2   7   3   -0.10    0.34
  -2   7   3   -0.32    0.32
  -2   7   3    0.16    0.49
   2  -7  -3   -0.33    0.30
   2  -7  -3    0.06    0.23
   2  -7  -3    1.39    0.36
   2  -7  -3   -0.11    0.59
   2  -7  -3    0.06    0.48
   2  -7  -3    0.10    0.40
  -4   7   4    2.98    0.73
  -4   7   4    3.57    0.79
   4  -7  -4    1.70    0.72
   4  -7  -4    1.65    0.49
   4  -7  -4    2.20    0.62
   4  -7  -4    3.21    0.79
  -6   7   5    2.33    0.77
  -6   7   5    1.88    0.65
  -6   7   5    3.40    1.00
  -6   7   5    0.49    0.69
   6  -7  -5    2.36    0.56
   6  -7  -5    1.90    0.60
   6  -7  -5    2.86    1.05
  -8   7   6   -0.21    0.88
  -8   7   6    0.72    0.71
  -8   7   6   -0.17    0.70
   8  -7  -6    0.89    0.83
   8  -7  -6    1.75    0.92
   3   8   0    0.07    0.69
   3   8   0   -0.11    0.61
  -3  -8   0    0.63    0.76
  -3  -8   0    1.79    0.84
  -3  -8   0    1.18    0.87
   1   8   1    1.14    0.46
   1   8   1    1.13    0.63
   1   8   1    1.07    0.49
   1   8   1    0.90    0.67
   1   8   1    1.87    0.90
  -1  -8  -1    1.73    0.81
  -1  -8  -1    1.06    0.98
  -1  -8  -1    0.58    0.59
  -1  -8  -1    1.69    0.75
  -1  -8  -1    2.33    0.93
  -1   8   2    9.07    1.37
  -1   8   2    9.89    1.25
  -1   8   2    9.10    1.03
  -1   8   2    7.01    0.97
  -1   8   2    8.81    0.98
  -1   8   2    8.27    1.02
   1  -8  -2    7.87    1.12
   1  -8  -2    8.58    0.98
   1  -8  -2    9.58    1.27
  -3   8   3   10.01    1.17
  -3   8   3    7.99    1.01
  -3   8   3    8.65    1.18
  -3   8   3    9.45    1.05
  -3   8   3   10.68    1.27
   3  -8  -3   10.23    1.30
   3  -8  -3    9.06    0.71
   3  -8  -3    7.14    1.01
   3  -8  -3   10.00    1.23
  -5   8   4    2.35    0.72
  -5   8   4    1.11    0.72
  -5   8   4    0.89    0.64
  -5   8   4    2.55    0.98
   5  -8  -4    1.73    0.63
   5  -8  -4    1.68    0.83
   5  -8  -4    1.21    0.84
  -7   8   5    1.66    0.76
  -7   8   5    1.52    0.87
   7  -8  -5    3.11    1.10
   7  -8  -5    0.49    1.11
   7  -8  -5    1.23    0.47
   2   9   0   -0.37    0.77
   2   9   0    1.86    0.91
  -2  -9   0    2.47    1.14
  -2  -9   0    1.34    1.10
  -2  -9   0    3.13    1.24
   0   9   1    1.47    0.95
   0   9   1    2.53    0.67
   0   9   1    4.41    1.12
   0   9   1    1.49    0.73
   0   9   1    3.13    0.63
   0  -9  -1    1.03    0.67
   0  -9  -1    3.07    1.08
   0  -9  -1    2.71    1.00
   0  -9  -1    4.53    1.08
  -2   9   2    5.40    1.04
  -2   9   2    3.58    0.96
  -2   9   2    5.39    1.16
  -2   9   2    3.89    0.88
   2  -9  -2    3.94    1.14
   2  -9  -2    3.96    1.11
   2  -9  -2    3.59    1.10
   2  -9  -2    5.36    0.87
   2  -9  -2    3.94    0.75
  -4   9   3    0.79    0.75
  -4   9   3    0.65    0.62
  -4   9   3    0.93    0.55
  -4   9   3    0.05    1.02
   4  -9  -3   -0.46    0.54
   4  -9  -3    0.31    0.50
   4  -9  -3    0.08    0.50
  -6   9   4    0.85    0.75
  -6   9   4   -0.24    0.66
  -6   9   4   -0.56    0.73
  -6   9   4   -0.20    0.43
   6  -9  -4   -0.67    0.53
   6  -9  -4    0.08    0.82
   6  -9  -4    0.96    0.75
  -8   9   5    0.41    0.80
  -8   9   5    1.02    0.78
  -8   9   5   -0.89    0.58
   8  -9  -5    0.57    1.06
   8  -9  -5   -0.11    0.88
   1  10   0   -1.04    0.56
   1  10   0    0.52    0.75
  -1 -10   0    2.51    1.36
  -1 -10   0   -0.28    0.55
  -1 -10   0    0.26    0.79
  -1  10   1    1.81    0.72
  -1  10   1    2.37    1.06
  -1  10   1    0.21    0.68
  -1  10   1    2.84    0.85
  -1  10   1    2.19    0.79
   1 -10  -1    1.37    0.86
   1 -10  -1    1.49    0.76
   1 -10  -1    2.63    1.09
  -3  10   2   -0.33    0.56
  -3  10   2    0.02    0.55
  -3  10   2   -0.25    0.64
  -3  10   2    0.02    0.47
  -3  10   2   -0.19    0.71
   3 -10  -2    0.73    0.69
   3 -10  -2    0.31    0.63
   3 -10  -2   -0.25    0.38
  -5  10   3    2.89    0.90
  -5  10   3    6.86    1.35
  -5  10   3    4.70    1.27
  -5  10   3    4.41    1.23
   5 -10  -3    3.58    1.21
   5 -10  -3    4.28    1.13
   5 -10  -3    2.83    0.84
  -7  10   4    1.72    1.12
  -7  10   4   -0.14    0.61
   7 -10  -4    2.26    1.20
   7 -10  -4    1.30    1.12
   0  11   0   -0.19    0.69
   0  11   0    1.20    0.85
   0 -11   0    0.95    1.11
   0 -11   0    1.52    1.04
   0 -11   0   -0.68    0.80
  -2  11   1    3.76    0.93
  -2  11   1    2.44    1.17
  -2  11   1    2.99    0.96
  -2  11   1    4.68    1.20
   2 -11  -1    2.86    0.93
   2 -11  -1    5.86    1.47
   2 -11  -1    2.58    1.21
   2 -11  -1    2.92    1.41
  -4  11   2   -0.35    0.69
  -4  11   2    0.45    0.75
  -4  11   2    1.05    0.60
   4 -11  -2   -0.42    0.77
   4 -11  -2   -0.05    0.77
   4 -11  -2    0.32    0.72
  -6  11   3   -0.45    1.02
  -6  11   3    0.08    0.59
  -6  11   3    1.26    0.96
   6 -11  -3    1.23    1.01
   6 -11  -3    0.06    0.79
   6 -11  -3   -1.13    0.99
   5  -9   8   -0.53    0.96
   5  -9   8    1.14    0.63
   5  -9   8   -1.58    0.77
   5  -9   8    0.12    0.66
   5  -9   8    0.43    0.98
   5  -9   8    0.25    1.00
  -5   9  -8    0.08    0.63
  -5   9  -8    0.00    0.60
  -5   9  -8    0.67    0.92
   3  -9   9    1.17    0.82
   3  -9   9    0.43    0.82
   3  -9   9    0.44    0.59
   3  -9   9    1.03    0.94
   3  -9   9   -0.15    0.83
   3  -9   9   -0.43    0.85
  -3   9  -9    0.99    0.89
  -3   9  -9    1.15    0.46
  -3   9  -9    1.42    0.98
  -3   9  -9    0.96    0.84
  -3   9  -9    0.42    0.51
   1  -9  10    0.31    0.79
   1  -9  10    2.00    1.34
   1  -9  10    2.35    1.10
   1  -9  10    1.44    0.75
  -1   9 -10    1.32    0.66
  -1   9 -10    1.16    0.83
  -1   9 -10    1.35    0.78
  -1   9 -10    2.47    0.98
   6  -8   7    0.81    0.66
   6  -8   7    1.36    1.05
   6  -8   7   -0.96    0.99
  -6   8  -7    0.35    0.97
  -6   8  -7    0.32    0.68
  -6   8  -7    1.37    0.78
   4  -8   8    0.19    0.73
   4  -8   8    0.05    0.74
   4  -8   8    0.87    0.80
   4  -8   8   -0.03    0.50
   4  -8   8    0.56    0.50
  -4   8  -8    2.20    0.86
  -4   8  -8    0.75    0.78
  -4   8  -8   -0.41    0.37
  -4   8  -8    0.37    0.65
  -4   8  -8    0.48    0.42
   2  -8   9    1.15    0.93
   2  -8   9    0.19    0.49
   2  -8   9   -0.61    0.53
   2  -8   9    1.22    0.94
  -2   8  -9    0.28    0.79
  -2   8  -9   -0.80    0.58
  -2   8  -9    1.30    0.68
  -2   8  -9    0.16    0.47
  -2   8  -9    0.41    0.39
   0  -8  10    2.83    0.92
   0  -8  10    1.50    1.08
   0  -8  10    3.05    0.91
   0  -8  10    2.49    0.92
   0   8 -10    2.53    0.81
   0   8 -10    2.45    0.74
   0   8 -10    2.21    0.98
   0   8 -10    3.48    1.11
   0   8 -10    2.51    0.82
   7  -7   6    0.02    0.65
   7  -7   6    1.68    0.96
  -7   7  -6    0.37    0.96
  -7   7  -6   -0.14    0.77
   5  -7   7    1.09    0.62
   5  -7   7    2.95    0.95
   5  -7   7    2.28    0.96
   5  -7   7    1.09    0.49
  -5   7  -7    1.85    0.68
  -5   7  -7    1.11    0.64
  -5   7  -7    4.10    1.16
  -5   7  -7    2.76    0.74
   3  -7   8    0.04    0.49
   3  -7   8   -0.15    0.37
   3  -7   8   -0.05    0.46
   3  -7   8    0.05    0.57
   3  -7   8    0.12    0.65
  -3   7  -8    0.44    0.62
  -3   7  -8   -0.51    0.40
  -3   7  -8    0.36    0.36
  -3   7  -8    0.00    0.34
  -3   7  -8    0.81    0.71
   1  -7   9    3.27    0.87
   1  -7   9    2.21    0.98
   1  -7   9    1.30    0.53
   1  -7   9    2.80    0.62
   1  -7   9    2.99    0.99
  -1   7  -9    2.93    0.66
  -1   7  -9    1.96    0.63
  -1   7  -9    3.04    0.73
  -1   7  -9    3.24    0.89
  -1   7  -9    2.14    0.95
  -1   7  -9    4.15    1.11
  -1  -7  10   -0.26    0.57
  -1  -7  10    1.52    0.67
  -1  -7  10    0.26    0.72
   1   7 -10   -0.42    0.41
   1   7 -10    0.01    0.48
   1   7 -10    1.13    0.78
   1   7 -10   -1.00    0.64
   1   7 -10   -0.44    0.56
  -3  -7  11    0.03    1.01
  -3  -7  11    0.05    0.91
   3   7 -11   -0.63    0.82
   3   7 -11    1.35    0.99
   3   7 -11   -0.07    0.71
   3   7 -11   -0.82    0.57
   8  -6   5   -0.13    0.64
   8  -6   5    0.62    0.71
   8  -6   5   -0.81    0.75
  -8   6  -5   -0.91    1.02
  -8   6  -5   -0.59    0.62
   6  -6   6    0.87    0.65
   6  -6   6    2.32    0.97
   6  -6   6    1.29    0.95
  -6   6  -6    1.80    0.77
  -6   6  -6    1.02    0.62
  -6   6  -6    2.92    1.01
  -6   6  -6    1.24    0.56
   4  -6   7    8.11    1.50
   4  -6   7    6.83    0.73
   4  -6   7    5.05    0.70
   4  -6   7    5.08    0.71
   4  -6   7    8.68    1.63
  -4   6  -7    7.48    0.88
  -4   6  -7    6.55    1.27
  -4   6  -7    6.10    0.93
   2  -6   8    8.10    1.02
   2  -6   8    7.87    1.42
   2  -6   8    5.47    0.63
   2  -6   8    7.77    1.43
   2  -6   8    6.95    0.79
  -2   6  -8    5.95    1.04
  -2   6  -8    5.43    0.72
  -2   6  -8    5.61    0.82
  -2   6  -8    7.51    1.44
  -2   6  -8    6.77    0.99
   0  -6   9    7.89    0.84
   0  -6   9    7.78    1.58
   0  -6   9    8.17    1.38
   0  -6   9    8.38    1.31
   0   6  -9    6.51    0.84
   0   6  -9   10.01    1.71
   0   6  -9    8.51    1.14
   0   6  -9    6.30    0.87
   0   6  -9    5.94    0.73
  -2  -6  10    1.65    0.71
  -2  -6  10    1.54    0.83
  -2  -6  10    2.09    0.65
   2   6 -10    1.13    0.55
   2   6 -10    1.61    0.70
   2   6 -10    1.55    0.70
   2   6 -10    1.28    0.80
   2   6 -10    2.07    0.98
  -4  -6  11   -1.10    0.91
   4   6 -11   -0.64    1.31
   4   6 -11   -0.67    0.65
   4   6 -11    0.01    0.85
   7  -5   5    3.47    1.09
   7  -5   5    4.49    1.00
  -7   5  -5    3.45    0.98
  -7   5  -5    3.45    1.17
   5  -5   6    0.61    0.49
   5  -5   6    0.90    0.46
   5  -5   6    2.33    0.93
   5  -5   6    0.90    0.74
  -5   5  -6    0.50    0.47
  -5   5  -6    1.29    0.93
  -5   5  -6    0.76    0.52
  -5   5  -6   -0.35    0.43
   3  -5   7    0.06    0.39
   3  -5   7    0.04    0.42
   3  -5   7    0.99    0.33
   3  -5   7    0.72    0.32
  -3   5  -7    1.07    0.43
  -3   5  -7    0.94    0.44
  -3   5  -7    0.79    0.31
  -3   5  -7    1.53    0.62
  -3   5  -7    1.55    0.58
   1  -5   8    2.91    0.40
   1  -5   8    3.46    0.85
   1  -5   8    3.12    0.84
   1  -5   8    2.71    0.47
   1  -5   8    2.33    0.89
  -1   5  -8    2.62    0.85
  -1   5  -8    3.70    1.01
  -1   5  -8    3.83    0.70
  -1   5  -8    2.96    0.73
  -1   5  -8    2.79    0.62
  -1  -5   9    5.05    0.73
  -1  -5   9    6.63    0.92
  -1  -5   9    6.84    0.88
  -1  -5   9    6.33    1.30
   1   5  -9    6.23    0.85
   1   5  -9    5.60    0.79
   1   5  -9    6.13    0.73
   1   5  -9    8.51    1.59
   1   5  -9    9.78    1.58
  -3  -5  10    2.26    0.70
  -3  -5  10    2.45    0.71
  -3  -5  10    1.07    0.73
   3   5 -10    1.21    0.66
   3   5 -10    1.98    0.95
   3   5 -10    1.81    0.99
   3   5 -10    0.74    0.82
   3   5 -10    2.84    0.84
  -5  -5  11    0.48    0.79
   5   5 -11    0.47    0.79
   5   5 -11   -0.34    0.78
   5   5 -11    0.71    0.70
   5   5 -11   -0.15    0.89
   8  -4   4   -1.10    0.72
   8  -4   4    0.68    0.65
   8  -4   4   -0.28    0.78
  -8   4  -4   -0.42    0.97
  -8   4  -4    0.53    0.86
   6  -4   5    0.17    0.54
   6  -4   5    0.33    0.71
   6  -4   5    0.39    0.65
  -6   4  -5    0.70    0.55
  -6   4  -5    0.84    0.64
  -6   4  -5   -0.26    0.40
  -6   4  -5    0.19    0.52
   4  -4   6    0.04    0.32
   4  -4   6    0.10    0.32
   4  -4   6   -0.40    0.35
   4  -4   6   -0.23    0.32
   4  -4   6   -0.18    0.10
   4  -4   6    0.01    0.08
  -4   4  -6    0.70    0.66
  -4   4  -6    0.52    0.50
  -4   4  -6   -0.02    0.31
  -4   4  -6   -0.09    0.35
   2  -4   7    8.43    1.15
   2  -4   7    8.81    0.55
   2  -4   7    8.93    1.09
   2  -4   7    5.14    0.97
  -2   4  -7    7.08    0.98
  -2   4  -7    6.90    0.81
  -2   4  -7    7.69    0.80
  -2   4  -7    6.56    0.74
  -2   4  -7    8.49    1.02
   0  -4   8    7.06    0.96
   0  -4   8    7.86    0.66
   0  -4   8    8.21    1.13
   0  -4   8   10.34    1.10
   0   4  -8    8.73    0.94
   0   4  -8    9.06    1.10
   0   4  -8    9.70    1.04
   0   4  -8    8.06    0.85
   0   4  -8    8.86    1.07
   0   4  -8    7.58    0.66
  -2  -4   9    0.51    0.69
  -2  -4   9    0.22    0.43
  -2  -4   9    0.58    0.49
  -2  -4   9    0.44    0.39
  -2  -4   9   -0.37    0.37
   2   4  -9   -0.60    0.44
   2   4  -9    0.20    0.34
   2   4  -9    0.31    0.38
   2   4  -9    0.30    0.57
   2   4  -9    0.05    0.43
  -4  -4  10   -0.08    0.51
  -4  -4  10    0.88    0.54
  -4  -4  10    0.17    0.56
  -4  -4  10   -0.87    0.61
   4   4 -10    0.31    0.55
   4   4 -10    0.03    0.61
   4   4 -10    0.45    0.55
   4   4 -10   -0.32    0.72
   4   4 -10    0.61    0.61
   7  -3   4    1.25    0.66
   7  -3   4    1.05    0.73
   7  -3   4    1.45    0.74
  -7   3  -4   -0.55    0.97
  -7   3  -4    0.85    0.71
  -7   3  -4   -0.05    0.68
   5  -3   5    5.82    1.20
   5  -3   5    4.89    0.71
   5  -3   5    6.66    1.31
   5  -3   5    4.66    0.63
  -5   3  -5    6.43    1.08
  -5   3  -5    5.84    1.25
  -5   3  -5    6.38    1.06
  -5   3  -5    4.71    0.79
   3  -3   6   11.60    0.88
   3  -3   6   12.18    1.39
   3  -3   6   12.41    0.87
   3  -3   6   11.57    0.83
   3  -3   6   13.47    0.87
   3  -3   6   12.94    1.30
  -3   3  -6   14.25    1.26
  -3   3  -6   13.65    1.34
  -3   3  -6   14.35    1.20
  -3   3  -6   13.77    1.14
   1  -3   7    7.83    0.97
   1  -3   7    8.09    0.87
   1  -3   7    8.36    0.94
   1  -3   7    7.85    0.65
  -1   3  -7    6.26    0.90
  -1   3  -7    8.35    0.79
  -1   3  -7    8.65    1.03
  -1   3  -7    8.89    0.90
  -1   3  -7    8.43    0.86
  -1  -3   8    1.35    0.51
  -1  -3   8    1.99    0.38
  -1  -3   8    1.22    0.61
  -1  -3   8    0.87    0.36
  -1  -3   8    1.67    0.57
   1   3  -8    1.15    0.68
   1   3  -8    1.21    0.56
   1   3  -8    1.14    0.30
   1   3  -8    1.97    0.72
   1   3  -8    1.26    0.50
  -3  -3   9   19.87    1.63
  -3  -3   9   19.06    1.54
  -3  -3   9   18.68    1.79
   3   3  -9   17.79    1.64
   3   3  -9   18.54    1.69
   3   3  -9   17.47    1.48
   3   3  -9   21.98    1.89
   3   3  -9   18.45    1.83
  -5  -3  10    0.11    0.48
  -5  -3  10   -0.42    0.58
  -5  -3  10   -0.45    0.45
  -5  -3  10   -0.83    0.61
   5   3 -10    0.83    0.75
   5   3 -10   -0.11    0.41
   5   3 -10   -0.32    0.44
   5   3 -10    0.65    0.71
   8  -2   3    1.97    1.01
   8  -2   3    2.19    0.87
   8  -2   3    2.10    0.90
  -8   2  -3    1.52    1.19
  -8   2  -3    3.22    1.09
   6  -2   4    2.49    0.69
   6  -2   4    1.56    0.69
   6  -2   4   -0.30    0.51
   6  -2   4    1.27    0.68
  -6   2  -4    0.92    0.71
  -6   2  -4    1.92    0.76
  -6   2  -4    1.37    0.77
   4  -2   5    1.85    0.50
   4  -2   5    2.85    0.59
   4  -2   5    3.69    0.92
   4  -2   5    2.07    0.78
  -4   2  -5    2.53    0.86
  -4   2  -5    2.05    0.66
  -4   2  -5    2.13    0.50
  -4   2  -5    1.79    0.57
   2  -2   6    5.44    0.77
   2  -2   6    5.52    0.53
   2  -2   6    5.95    0.86
   2  -2   6    4.99    0.59
  -2   2  -6    6.17    0.83
  -2   2  -6    5.47    0.54
  -2   2  -6    7.14    1.13
  -2   2  -6    5.43    0.71
   0  -2   7    5.77    0.71
   0  -2   7    6.71    0.93
   0  -2   7    6.28    0.85
   0   2  -7    7.11    0.78
   0   2  -7    7.53    0.87
   0   2  -7    7.63    1.18
   0   2  -7    6.42    0.77
  -2  -2   8    0.82    0.56
  -2  -2   8    1.72    0.54
  -2  -2   8    1.86    0.58
  -2  -2   8    2.12    0.48
  -2  -2   8    1.77    0.56
   2   2  -8    1.58    0.71
   2   2  -8    0.98    0.50
   2   2  -8    1.21    0.38
   2   2  -8    1.44    0.64
  -4  -2   9    0.45    0.60
  -4  -2   9   -0.12    0.39
  -4  -2   9    0.20    0.45
  -4  -2   9    0.45    0.40
   4   2  -9   -0.02    0.47
   4   2  -9   -0.01    0.58
   4   2  -9    0.74    0.45
   4   2  -9   -0.56    0.62
   4   2  -9    0.36    0.45
  -6  -2  10   -0.38    0.45
  -6  -2  10   -0.52    0.66
   6   2 -10    0.78    0.90
   6   2 -10   -0.54    0.62
   6   2 -10    0.41    0.59
   6   2 -10    0.35    0.70
   7  -1   3    1.06    0.66
   7  -1   3    1.29    0.82
   7  -1   3    1.93    0.88
   7  -1   3    0.90    0.69
  -7   1  -3    1.02    0.62
  -7   1  -3    2.00    0.99
  -7   1  -3   -0.14    1.47
   5  -1   4    0.94    0.56
   5  -1   4    0.15    0.39
   5  -1   4    1.07    0.54
   5  -1   4    0.74    0.60
  -5   1  -4    2.59    0.68
  -5   1  -4    0.90    0.48
  -5   1  -4    1.21    0.70
  -5   1  -4    1.20    0.66
   3  -1   5    6.95    0.80
   3  -1   5    7.59    0.97
   3  -1   5    8.63    0.67
   3  -1   5    8.70    0.97
  -3   1  -5    7.06    0.63
  -3   1  -5    6.55    0.39
  -3   1  -5    8.01    0.91
  -3   1  -5    7.45    0.81
  -3   1  -5    7.96    1.02
  -3   1  -5    7.28    0.91
  -3   1  -5    5.55    0.41
   1  -1   6   11.53    1.11
   1  -1   6   12.58    1.31
   1  -1   6   12.40    0.99
   1  -1   6   12.19    0.91
  -1   1  -6   11.93    1.07
  -1   1  -6   11.17    0.89
  -1   1  -6   11.15    1.08
  -1   1  -6   10.49    1.09
  -1   1  -6   12.18    1.03
  -1  -1   7    7.48    0.88
  -1  -1   7    8.00    0.78
  -1  -1   7    7.52    0.83
  -1  -1   7    7.67    0.89
  -1  -1   7    7.23    0.84
  -1  -1   7    7.01    0.82
   1   1  -7    7.67    0.83
   1   1  -7    7.87    0.87
   1   1  -7    6.49    0.78
   1   1  -7    6.64    0.81
   1   1  -7    7.32    0.93
   1   1  -7    7.57    0.91
  -3  -1   8   13.44    1.35
  -3  -1   8   16.35    1.43
  -3  -1   8   13.09    1.12
  -3  -1   8   15.69    1.34
  -3  -1   8   15.48    1.35
   3   1  -8   16.26    1.40
   3   1  -8   15.07    1.20
   3   1  -8   15.70    1.48
   3   1  -8   14.40    1.40
   3   1  -8   14.72    1.40
  -5  -1   9    0.46    0.48
  -5  -1   9    1.85    0.58
  -5  -1   9    1.97    0.62
  -5  -1   9    2.03    0.73
   5   1  -9    0.63    0.82
   5   1  -9    1.19    0.59
   5   1  -9    1.27    0.75
   5   1  -9    1.85    0.69
   5   1  -9    1.23    0.56
  -7  -1  10    0.61    0.71
  -7  -1  10    0.11    0.63
  -7  -1  10   -1.47    0.72
   7   1 -10   -0.37    0.60
   7   1 -10    0.03    0.65
   7   1 -10   -0.66    0.61
   7   1 -10   -0.04    0.72
   8   0   2    4.02    1.42
   8   0   2   -0.02    0.69
   8   0   2    1.72    0.71
  -8   0  -2    0.11    0.81
  -8   0  -2   -1.03    0.82
  -8   0  -2    2.34    1.11
   6   0   3    5.44    1.08
   6   0   3    4.96    1.08
   6   0   3    4.11    0.99
   6   0   3    4.04    1.07
  -6   0  -3    6.16    1.41
  -6   0  -3    3.81    1.10
  -6   0  -3    4.17    1.07
  -6   0  -3    3.64    0.88
   4   0   4    6.09    0.74
   4   0   4    5.94    0.85
   4   0   4    5.80    0.83
   4   0   4    6.38    1.12
  -4   0  -4    7.18    1.28
  -4   0  -4    7.49    1.22
  -4   0  -4    5.79    0.82
  -4   0  -4    6.69    1.09
  -4   0  -4    5.24    0.71
   2   0   5   -0.02    0.20
   2   0   5    0.37    0.36
   2   0   5    0.30    0.20
   2   0   5    0.41    0.21
   2   0   5    0.40    0.32
  -2   0  -5   -0.04    0.19
  -2   0  -5    0.02    0.17
  -2   0  -5    0.51    0.38
  -2   0  -5    0.18    0.31
  -2   0  -5    0.30    0.34
   0   0   6   65.63    3.64
   0   0   6   63.13    3.67
   0   0   6   66.00    3.57
   0   0   6   64.02    3.82
   0   0   6   65.03    3.66
   0   0   6   59.74    3.70
   0   0   6   62.58    3.72
   0   0  -6   64.43    3.21
   0   0  -6   58.23    3.73
   0   0  -6   65.91    3.77
   0   0  -6   63.28    3.20
   0   0  -6   63.91    3.68
   0   0  -6   61.73    3.69
   0   0  -6   66.15    3.68
   0   0  -6   67.41    3.61
  -2   0   7   16.13    1.14
  -2   0   7   18.49    1.40
  -2   0   7   16.13    1.40
  -2   0   7   17.37    1.33
  -2   0   7   17.29    1.35
  -2   0   7   15.88    1.39
   2   0  -7   15.91    1.38
   2   0  -7   16.57    1.42
   2   0  -7   17.44    1.39
   2   0  -7   17.22    1.33
   2   0  -7   17.71    1.16
  -4   0   8    7.06    1.02
  -4   0   8    6.48    0.87
  -4   0   8    7.43    0.95
  -4   0   8    7.54    0.98
   4   0  -8    8.55    1.39
   4   0  -8    6.58    0.89
   4   0  -8    8.58    2.17
   4   0  -8    7.42    0.93
   4   0  -8    6.31    0.83
  -6   0   9    2.69    0.88
  -6   0   9    1.09    0.62
  -6   0   9    1.67    0.76
  -6   0   9    2.18    0.81
   6   0  -9    1.97    0.72
   6   0  -9    1.66    0.66
   6   0  -9    2.04    0.85
   6   0  -9    2.47    0.84
  -8   0  10   -1.35    0.73
  -8   0  10    0.20    0.86
  -8   0  10    1.49    1.01
  -8   0  10    1.15    0.91
   8   0 -10   -1.26    0.96
   8   0 -10   -0.21    0.79
   8   0 -10   -0.48    0.88
   8   0 -10   -0.46    0.70
   7   1   2    1.42    0.65
   7   1   2    1.29    0.76
   7   1   2    1.42    0.80
   7   1   2    0.44    0.81
  -7  -1  -2   -0.37    0.90
  -7  -1  -2    0.81    0.73
  -7  -1  -2    0.25    0.47
  -7  -1  -2    0.91    0.69
   5   1   3    0.18    0.49
   5   1   3   -0.01    0.30
   5   1   3    0.53    0.53
   5   1   3   -0.24    0.51
  -5  -1  -3    0.50    0.58
  -5  -1  -3    0.37    0.47
  -5  -1  -3    0.19    0.46
  -5  -1  -3    0.90    0.75
  -5  -1  -3    0.08    0.27
  -5  -1  -3    0.28    0.30
   3   1   4   14.22    1.29
   3   1   4   14.00    1.30
   3   1   4   15.66    1.42
   3   1   4   14.26    1.17
  -3  -1  -4   15.35    1.34
  -3  -1  -4   16.86    1.45
  -3  -1  -4   14.91    1.00
  -3  -1  -4   15.10    1.35
  -3  -1  -4   14.67    1.35
  -3  -1  -4   15.24    1.02
   1   1   5    2.21    0.58
   1   1   5    1.52    0.53
   1   1   5    1.57    0.46
   1   1   5    1.43    0.50
   1   1   5    1.36    0.53
   1   1   5    1.15    0.36
   1   1   5    1.37    0.38
   1   1   5    0.97    0.29
  -1  -1  -5    1.21    0.47
  -1  -1  -5    1.38    0.58
  -1  -1  -5    0.72    0.38
  -1  -1  -5    1.06    0.31
  -1  -1  -5    1.37    0.45
  -1  -1  -5    1.01    0.36
  -1  -1  -5    1.42    0.50
  -1   1   6    5.94    0.75
  -1   1   6    5.15    0.63
  -1   1   6    5.81    0.72
  -1   1   6    5.62    0.77
  -1   1   6    6.28    0.71
  -1   1   6    5.21    0.70
  -1   1   6    6.13    0.72
   1  -1  -6    5.69    0.75
   1  -1  -6    5.72    0.71
   1  -1  -6    5.38    0.51
   1  -1  -6    5.95    0.70
   1  -1  -6    5.77    0.67
   1  -1  -6    5.24    0.63
   1  -1  -6    5.20    0.72
   1  -1  -6    5.48    0.64
  -3   1   7   10.43    1.14
  -3   1   7   13.35    1.09
  -3   1   7   12.17    1.16
  -3   1   7   12.10    1.25
  -3   1   7   11.37    1.17
  -3   1   7   10.97    1.14
  -3   1   7   11.04    0.98
   3  -1  -7   10.92    1.11
   3  -1  -7   13.49    1.21
   3  -1  -7   11.84    1.15
   3  -1  -7   11.20    1.17
   3  -1  -7   10.33    0.95
  -5   1   8    0.60    0.58
  -5   1   8    0.27    0.53
  -5   1   8    0.70    0.56
  -5   1   8    0.58    0.46
   5  -1  -8    0.20    0.46
   5  -1  -8   -0.23    0.47
   5  -1  -8    0.53    0.38
   5  -1  -8    0.46    0.48
  -7   1   9    1.67    0.67
  -7   1   9    2.04    0.80
  -7   1   9    0.36    0.76
  -7   1   9    0.40    0.71
   7  -1  -9    0.36    0.56
   7  -1  -9    0.85    0.68
   7  -1  -9    0.97    0.61
   7  -1  -9    0.68    0.80
   6   2   2    0.83    0.74
   6   2   2    0.55    0.55
   6   2   2    0.83    0.53
  -6  -2  -2    0.48    0.55
  -6  -2  -2    0.05    0.57
  -6  -2  -2    0.35    0.48
  -6  -2  -2   -0.46    0.66
  -6  -2  -2    0.64    0.60
   4   2   3    0.07    0.30
   4   2   3   -0.04    0.38
   4   2   3    0.28    0.37
   4   2   3    0.84    0.40
  -4  -2  -3    0.73    0.55
  -4  -2  -3   -0.19    0.43
  -4  -2  -3    0.49    0.33
  -4  -2  -3    0.52    0.36
  -4  -2  -3   -0.34    0.25
   2   2   4    6.16    0.84
   2   2   4    6.83    0.84
   2   2   4    5.92    0.71
   2   2   4    5.83    0.75
   2   2   4    6.74    0.84
  -2  -2  -4    7.36    0.71
  -2  -2  -4    8.52    0.88
  -2  -2  -4    6.46    0.83
  -2  -2  -4    6.90    0.89
  -2  -2  -4    6.91    0.71
  -2  -2  -4    6.11    0.80
  -2  -2  -4    9.24    1.45
  -2  -2  -4    6.23    0.70
   0   2   5  234.01   12.22
   0   2   5  238.10   12.25
   0   2   5  226.36   12.06
   0   2   5  239.15   12.11
   0   2   5  209.50   12.17
   0   2   5  234.72   12.31
   0   2   5  251.40   12.26
   0   2   5  246.05   12.00
   0  -2  -5  249.49   12.14
   0  -2  -5  236.11   12.27
   0  -2  -5  235.24   12.19
   0  -2  -5  240.72   12.13
   0  -2  -5  242.70   11.98
   0  -2  -5  243.91   12.28
   0  -2  -5  244.79   12.29
  -2   2   6    0.31    0.37
  -2   2   6    1.02    0.64
  -2   2   6    0.60    0.49
  -2   2   6    0.36    0.27
  -2   2   6    0.37    0.27
  -2   2   6    0.89    0.28
   2  -2  -6    1.57    0.52
   2  -2  -6    0.73    0.26
   2  -2  -6    0.66    0.34
   2  -2  -6    1.06    0.37
   2  -2  -6    0.68    0.35
   2  -2  -6    0.39    0.32
   2  -2  -6    0.25    0.35
  -4   2   7   10.24    1.03
  -4   2   7    9.46    0.88
  -4   2   7   10.99    1.17
  -4   2   7   10.04    1.13
  -4   2   7   10.45    0.91
  -4   2   7   11.82    1.30
  -4   2   7   11.20    1.21
   4  -2  -7   11.98    1.07
   4  -2  -7   11.38    1.08
   4  -2  -7   12.48    1.21
   4  -2  -7   10.03    1.12
  -6   2   8    3.63    0.96
  -6   2   8    3.51    0.81
  -6   2   8    3.43    0.98
  -6   2   8    5.56    1.14
   6  -2  -8    3.30    0.93
   6  -2  -8    3.96    0.91
   6  -2  -8    2.31    0.89
   6  -2  -8    3.89    1.02
  -8   2   9    6.09    1.23
  -8   2   9    6.36    1.37
  -8   2   9    5.26    1.11
  -8   2   9    2.03    1.04
  -8   2   9    8.21    1.46
   8  -2  -9    4.37    1.00
   8  -2  -9    5.26    1.32
   8  -2  -9    5.56    1.37
   8  -2  -9    5.99    1.55
   7   3   1   -0.70    0.54
   7   3   1   -1.16    0.66
   7   3   1   -1.10    0.59
   7   3   1    0.20    0.91
  -7  -3  -1   -0.64    0.57
  -7  -3  -1   -0.06    0.93
  -7  -3  -1    0.54    0.85
   5   3   2    0.97    0.58
   5   3   2   -0.44    1.16
   5   3   2    0.39    0.48
   5   3   2   -0.01    0.42
  -5  -3  -2    1.72    0.81
  -5  -3  -2    1.04    0.65
  -5  -3  -2    0.56    0.72
   3   3   3   17.00    1.59
   3   3   3   18.80    1.49
   3   3   3   18.66    1.43
   3   3   3   18.90    1.55
  -3  -3  -3   19.21    1.42
  -3  -3  -3   17.51    1.48
  -3  -3  -3   18.62    1.62
  -3  -3  -3   19.28    1.63
  -3  -3  -3   19.44    1.45
  -3  -3  -3   18.15    1.66
   1   3   4    0.01    0.27
   1   3   4   -0.06    0.28
   1   3   4    0.57    0.38
   1   3   4   -0.11    0.26
   1   3   4   -0.15    0.28
   1   3   4    0.04    0.37
   1   3   4   -0.07    0.25
  -1  -3  -4   -0.07    0.33
  -1  -3  -4    0.35    0.36
  -1  -3  -4    0.15    0.30
  -1  -3  -4    0.02    0.40
  -1  -3  -4    0.27    0.31
  -1  -3  -4    0.29    0.38
  -1  -3  -4    0.07    0.31
  -1  -3  -4    0.13    0.39
  -1   3   5   22.73    1.77
  -1   3   5   24.74    1.71
  -1   3   5   20.99    1.44
  -1   3   5   21.59    1.67
  -1   3   5   23.62    1.59
  -1   3   5   24.86    1.73
  -1   3   5   22.55    1.67
  -1   3   5   23.31    1.70
   1  -3  -5   24.23    1.71
   1  -3  -5   24.59    1.51
   1  -3  -5   22.37    1.64
   1  -3  -5   24.47    1.58
   1  -3  -5   23.55    1.56
   1  -3  -5   23.18    1.74
   1  -3  -5   23.53    1.70
   1  -3  -5   24.08    1.75
  -3   3   6    0.21    0.36
  -3   3   6   -0.19    0.31
  -3   3   6    0.02    0.29
  -3   3   6   -0.07    0.16
  -3   3   6   -0.05    0.15
  -3   3   6    0.13    0.44
  -3   3   6    0.13    0.25
  -3   3   6    0.06    0.30
   3  -3  -6   -0.19    0.26
   3  -3  -6   -0.22    0.27
   3  -3  -6   -0.02    0.34
   3  -3  -6   -0.19    0.31
   3  -3  -6   -0.12    0.32
   3  -3  -6   -0.01    0.35
  -5   3   7   11.29    1.35
  -5   3   7   14.01    1.39
  -5   3   7   12.72    1.47
  -5   3   7   12.54    1.15
  -5   3   7   13.25    0.98
  -5   3   7   12.62    1.41
  -5   3   7   13.27    0.99
   5  -3  -7   14.46    1.37
   5  -3  -7   12.18    1.28
   5  -3  -7   13.85    1.19
   5  -3  -7   14.44    1.40
  -7   3   8    0.51    0.57
  -7   3   8    0.95    0.67
  -7   3   8   -0.14    0.62
  -7   3   8    0.08    0.51
  -7   3   8   -0.09    0.71
  -7   3   8    0.13    0.72
   7  -3  -8    0.75    0.62
   7  -3  -8    0.25    0.52
   7  -3  -8   -0.27    0.51
   7  -3  -8   -0.25    0.35
   6   4   1   -0.40    0.85
   6   4   1   -0.30    0.64
   6   4   1   -0.16    0.51
  -6  -4  -1    0.05    0.67
  -6  -4  -1    1.44    0.79
  -6  -4  -1    0.00    0.86
  -6  -4  -1    0.74    0.97
   4   4   2    0.42    0.45
   4   4   2    0.04    0.48
   4   4   2    0.98    0.63
   4   4   2   -0.23    0.34
   4   4   2    0.69    0.72
  -4  -4  -2    0.70    0.42
  -4  -4  -2   -0.14    0.45
  -4  -4  -2    0.33    0.62
  -4  -4  -2    0.28    0.68
   2   4   3    1.10    0.49
   2   4   3    2.03    0.60
   2   4   3    1.47    0.52
   2   4   3    1.13    0.49
   2   4   3    1.38    0.46
  -2  -4  -3    2.26    0.72
  -2  -4  -3    0.26    0.41
  -2  -4  -3    0.50    0.42
  -2  -4  -3    0.72    0.43
   0   4   4    1.75    0.51
   0   4   4    1.51    0.44
   0   4   4    1.78    0.50
   0   4   4    0.76    0.39
   0   4   4    1.90    0.61
   0   4   4    1.52    0.47
   0  -4  -4    1.77    0.52
   0  -4  -4    0.56    0.36
   0  -4  -4    1.33    0.50
   0  -4  -4    0.60    0.45
   0  -4  -4    0.13    0.37
   0  -4  -4    0.87    0.36
   0  -4  -4    0.28    0.28
  -2   4   5   20.12    1.57
  -2   4   5   15.70    1.12
  -2   4   5   19.69    1.67
  -2   4   5   15.83    1.46
   2  -4  -5   22.13    1.50
   2  -4  -5   23.34    1.52
   2  -4  -5   21.89    1.54
  -4   4   6    0.29    0.36
  -4   4   6    0.93    0.50
  -4   4   6    0.53    0.51
  -4   4   6    0.74    0.62
  -4   4   6   -0.11    0.38
   4  -4  -6    0.53    0.46
   4  -4  -6    0.70    0.43
   4  -4  -6    1.12    0.58
   4  -4  -6    1.14    0.59
  -6   4   7    8.45    1.44
  -6   4   7    6.27    0.63
  -6   4   7    8.54    1.51
  -6   4   7    7.03    0.64
  -6   4   7    9.17    1.66
  -6   4   7    7.53    0.90
  -6   4   7    8.79    1.16
   6  -4  -7    7.02    0.80
   6  -4  -7    8.64    1.18
   6  -4  -7    8.49    1.22
   6  -4  -7    9.24    1.44
  -8   4   8    0.79    0.87
  -8   4   8   -0.12    0.59
  -8   4   8    1.97    0.90
  -8   4   8    1.18    1.01
   8  -4  -8   -1.62    0.64
   8  -4  -8   -0.51    0.74
   5   5   1    0.95    0.86
   5   5   1   -0.37    0.47
   5   5   1    0.92    0.59
   5   5   1    1.00    0.55
  -5  -5  -1    0.25    0.60
  -5  -5  -1    0.73    0.68
  -5  -5  -1   -0.34    0.75
  -5  -5  -1   -0.42    0.73
   3   5   2    1.17    0.49
   3   5   2    1.92    0.80
   3   5   2    1.30    0.78
  -3  -5  -2    1.77    0.69
  -3  -5  -2    0.83    0.60
  -3  -5  -2    1.92    0.82
  -3  -5  -2    1.61    0.78
   1   5   3    2.57    0.72
   1   5   3    1.26    0.51
   1   5   3    2.12    0.59
   1   5   3    2.33    0.64
   1   5   3    2.28    0.66
  -1  -5  -3    2.38    0.72
  -1  -5  -3    3.48    0.72
  -1  -5  -3    2.15    0.67
  -1  -5  -3    2.87    0.74
  -1  -5  -3    1.69    0.69
  -1   5   4    0.12    0.32
  -1   5   4    1.04    0.35
  -1   5   4    0.79    0.52
  -1   5   4    0.68    0.49
  -1   5   4    0.92    0.53
   1  -5  -4    0.41    0.34
   1  -5  -4    0.81    0.50
   1  -5  -4    0.45    0.36
   1  -5  -4    0.71    0.33
  -3   5   5    4.05    0.92
  -3   5   5    4.10    0.84
  -3   5   5    3.43    0.83
  -3   5   5    4.36    1.08
   3  -5  -5    4.22    0.81
   3  -5  -5    5.43    1.54
   3  -5  -5    4.01    0.93
   3  -5  -5    3.50    0.77
  -5   5   6    2.67    0.67
  -5   5   6    1.95    0.83
  -5   5   6    3.33    0.96
  -5   5   6    2.84    0.81
  -5   5   6    2.50    0.76
   5  -5  -6    3.99    1.06
   5  -5  -6    4.52    0.83
   5  -5  -6    3.67    1.01
   5  -5  -6    3.35    0.82
  -7   5   7    7.77    1.63
  -7   5   7    7.31    1.38
  -7   5   7    8.75    1.61
  -7   5   7    6.31    0.98
   7  -5  -7    8.19    1.57
   7  -5  -7    6.16    1.42
   7  -5  -7    8.14    1.30
   7  -5  -7   10.50    0.85
   4   6   1    4.85    1.20
   4   6   1    2.96    0.68
   4   6   1    3.53    0.62
   4   6   1    5.96    1.36
   4   6   1    4.51    0.58
  -4  -6  -1    5.36    1.25
  -4  -6  -1    5.06    1.15
  -4  -6  -1    4.77    1.24
  -4  -6  -1    5.41    1.18
   2   6   2   -0.14    0.46
   2   6   2    0.09    0.47
   2   6   2   -0.25    0.38
   2   6   2    1.16    0.49
   2   6   2    0.37    0.40
  -2  -6  -2   -0.41    0.54
  -2  -6  -2    0.73    0.61
  -2  -6  -2    0.00    0.43
  -2  -6  -2   -0.09    0.47
  -2  -6  -2    0.22    0.50
   0   6   3    8.60    0.95
   0   6   3    7.92    0.97
   0   6   3    6.68    0.85
   0   6   3    8.66    1.10
   0   6   3    8.26    0.88
   0  -6  -3    8.67    0.92
   0  -6  -3   10.54    1.17
   0  -6  -3    5.50    0.85
   0  -6  -3    6.23    0.83
   0  -6  -3    9.02    1.08
  -2   6   4   16.91    1.59
  -2   6   4   23.26    1.69
  -2   6   4   16.81    1.14
  -2   6   4   17.27    1.49
  -2   6   4   19.13    1.60
  -2   6   4   18.41    1.54
   2  -6  -4   19.91    1.61
   2  -6  -4   17.63    1.15
   2  -6  -4   17.88    1.41
   2  -6  -4   19.10    1.62
   2  -6  -4   20.56    1.73
  -4   6   5    0.96    0.56
  -4   6   5    2.11    0.73
  -4   6   5    1.05    0.58
  -4   6   5    0.36    0.43
   4  -6  -5    2.14    0.70
   4  -6  -5    1.41    0.45
   4  -6  -5    2.29    0.71
  -6   6   6    1.17    0.58
  -6   6   6    0.58    0.76
  -6   6   6    0.33    0.52
  -6   6   6   -0.17    0.54
  -6   6   6    0.67    0.76
   6  -6  -6    0.11    0.44
   6  -6  -6    0.27    0.94
  -8   6   7    0.09    0.62
  -8   6   7   -0.17    0.73
  -8   6   7    0.14    0.62
   8  -6  -7   -0.52    0.79
   8  -6  -7    1.57    0.81
   5   7   0   -0.76    0.90
  -5  -7   0   -1.00    1.03
  -5  -7   0   -0.70    0.92
   3   7   1    3.26    0.56
   3   7   1    3.49    1.03
   3   7   1    3.99    0.58
   3   7   1    4.55    1.12
   3   7   1    6.90    1.33
   3   7   1    3.87    0.49
  -3  -7  -1    5.28    1.06
  -3  -7  -1    6.09    1.34
  -3  -7  -1    4.78    1.29
  -3  -7  -1    5.20    1.19
   1   7   2    0.98    0.58
   1   7   2    1.40    0.55
   1   7   2    0.22    0.54
   1   7   2    1.75    0.74
   1   7   2    1.68    0.53
  -1  -7  -2    0.92    0.52
  -1  -7  -2    1.63    0.77
  -1  -7  -2    1.07    0.75
  -1  -7  -2    2.26    0.75
  -1  -7  -2    1.02    0.69
  -1   7   3   26.64    1.98
  -1   7   3   29.98    2.10
  -1   7   3   28.53    2.08
  -1   7   3   28.03    2.18
  -1   7   3   23.16    1.96
   1  -7  -3   28.69    2.20
   1  -7  -3   26.29    1.83
   1  -7  -3   29.55    2.24
   1  -7  -3   25.29    1.85
  -3   7   4   18.39    1.70
  -3   7   4   20.51    1.80
  -3   7   4   19.82    1.63
   3  -7  -4   19.19    1.66
   3  -7  -4   20.20    1.76
   3  -7  -4   17.73    1.67
   3  -7  -4   18.55    1.39
  -5   7   5    5.33    1.16
  -5   7   5    4.15    1.14
  -5   7   5    7.19    1.23
  -5   7   5    5.49    1.07
   5  -7  -5    7.19    1.43
   5  -7  -5    5.70    1.26
   5  -7  -5    6.20    0.86
   5  -7  -5    4.13    0.77
  -7   7   6    4.64    1.28
  -7   7   6    2.85    0.86
  -7   7   6    3.28    1.06
   7  -7  -6    5.39    1.40
   7  -7  -6    4.41    0.68
   7  -7  -6    5.42    1.34
   4   8   0    2.66    1.09
   4   8   0    1.83    0.93
  -4  -8   0    2.38    1.33
  -4  -8   0    0.44    1.24
   2   8   1    4.95    1.34
   2   8   1    3.11    0.57
   2   8   1    4.92    1.10
   2   8   1    3.90    0.59
  -2  -8  -1    3.59    0.98
  -2  -8  -1    1.99    0.74
  -2  -8  -1    5.78    1.32
   0   8   2    4.90    1.10
   0   8   2    6.56    1.48
   0   8   2    5.34    0.75
   0  -8  -2    4.92    1.31
   0  -8  -2    5.67    1.08
   0  -8  -2    3.91    0.85
  -2   8   3   13.72    1.36
  -2   8   3   11.75    1.41
  -2   8   3   12.69    1.30
  -2   8   3   10.78    0.97
  -2   8   3   10.83    1.25
  -2   8   3   13.05    1.29
   2  -8  -3   13.00    1.53
   2  -8  -3   10.36    0.97
   2  -8  -3   12.08    1.02
   2  -8  -3   12.16    1.40
   2  -8  -3   11.03    0.95
   2  -8  -3   12.32    1.43
  -4   8   4    9.07    1.57
  -4   8   4    9.07    1.44
  -4   8   4    8.08    1.43
   4  -8  -4    7.93    1.28
  -6   8   5    3.99    1.11
  -6   8   5    2.61    1.02
  -6   8   5    3.42    0.90
  -6   8   5    3.11    1.10
   6  -8  -5    3.00    1.00
   6  -8  -5    3.49    1.37
   6  -8  -5    5.60    1.41
  -8   8   6    2.00    0.88
  -8   8   6    0.39    0.73
  -8   8   6    1.27    1.21
   8  -8  -6    2.72    1.29
   3   9   0    1.38    1.16
  -3  -9   0    3.45    1.09
  -3  -9   0    3.12    1.19
  -3  -9   0    2.68    1.33
   1   9   1    0.78    0.80
   1   9   1   -0.24    0.42
   1   9   1   -0.65    0.51
   1   9   1   -0.09    0.45
  -1  -9  -1    0.07    0.80
  -1  -9  -1    1.43    0.94
  -1  -9  -1    0.17    0.83
  -1   9   2    8.09    1.17
  -1   9   2    9.01    1.12
  -1   9   2   10.56    1.15
  -1   9   2    9.22    1.27
  -1   9   2   10.57    1.40
   1  -9  -2   10.20    1.41
   1  -9  -2   10.53    1.47
   1  -9  -2    8.99    1.09
  -3   9   3    0.52    0.58
  -3   9   3    1.32    0.74
  -3   9   3    0.70    0.60
  -3   9   3    1.65    0.63
  -3   9   3    2.05    0.74
   3  -9  -3   -0.12    0.55
   3  -9  -3    0.64    0.32
   3  -9  -3    0.15    0.56
   3  -9  -3    1.51    0.65
   3  -9  -3    0.08    0.27
  -5   9   4    2.18    0.76
  -5   9   4    2.19    0.91
  -5   9   4    1.35    0.55
  -5   9   4    2.07    1.01
   5  -9  -4    0.76    0.63
   5  -9  -4    1.87    0.99
   5  -9  -4    1.38    0.69
  -7   9   5    1.42    0.98
  -7   9   5    1.95    0.84
  -7   9   5    0.81    0.95
   7  -9  -5    2.18    1.09
   7  -9  -5    1.53    0.91
   7  -9  -5   -0.19    0.82
   0  10   1    0.23    0.62
   0  10   1    0.45    0.59
   0  10   1    0.12    0.58
   0 -10  -1    0.40    0.73
   0 -10  -1   -0.48    0.73
   0 -10  -1    0.68    0.92
  -2  10   2   10.12    1.40
  -2  10   2    9.90    1.19
  -2  10   2    8.87    1.26
  -2  10   2    9.53    1.21
  -2  10   2    9.20    1.28
   2 -10  -2   10.74    1.47
   2 -10  -2    9.77    1.43
   2 -10  -2   11.19    1.58
   2 -10  -2   10.01    1.05
  -4  10   3   13.83    1.38
  -4  10   3   11.49    1.49
  -4  10   3   11.17    1.56
  -4  10   3   11.71    1.53
   4 -10  -3   14.05    1.81
   4 -10  -3   10.88    1.48
  -6  10   4   -0.70    0.62
  -6  10   4    0.51    0.54
  -6  10   4    0.36    0.94
   6 -10  -4    0.89    0.94
   6 -10  -4   -1.59    0.58
   6 -10  -4   -0.74    0.62
  -1  11   1    0.55    0.89
  -1  11   1    0.06    0.73
   1 -11  -1    0.75    0.74
   1 -11  -1    0.38    0.63
  -3  11   2    2.30    1.05
  -3  11   2    4.20    1.20
  -3  11   2    2.46    1.10
  -3  11   2    3.99    0.99
   3 -11  -2    2.98    1.19
   3 -11  -2    2.69    1.17
   3 -11  -2    2.48    1.30
  -5  11   3    0.40    0.84
  -5  11   3    0.22    0.89
   5 -11  -3   -0.82    0.67
   5 -11  -3    0.40    0.77
   4  -9   9   -0.18    0.85
   4  -9   9    1.30    0.75
   4  -9   9    1.54    0.87
  -4   9  -9    0.64    0.68
  -4   9  -9   -0.81    0.70
   2  -9  10   -1.38    0.73
   2  -9  10    0.11    0.74
   2  -9  10   -0.02    0.75
  -2   9 -10   -0.22    0.96
  -2   9 -10    0.02    0.47
  -2   9 -10   -1.64    0.61
  -2   9 -10    0.30    0.76
   5  -8   8   -0.68    0.60
   5  -8   8   -0.50    0.50
   5  -8   8    1.21    0.86
  -5   8  -8    0.84    0.87
  -5   8  -8    0.20    0.61
  -5   8  -8   -0.63    0.62
  -5   8  -8   -0.19    0.45
   3  -8   9   -1.19    0.46
   3  -8   9    0.76    0.53
   3  -8   9    0.13    0.51
   3  -8   9    0.65    0.78
   3  -8   9    0.16    0.81
  -3   8  -9    1.48    0.72
  -3   8  -9    0.39    0.59
  -3   8  -9    0.17    0.45
  -3   8  -9   -0.56    0.72
  -3   8  -9    0.02    0.52
   1  -8  10    2.54    1.45
   1  -8  10    0.95    0.59
   1  -8  10    1.60    0.87
   1  -8  10    1.50    0.90
  -1   8 -10   -0.27    0.65
  -1   8 -10    0.75    0.55
  -1   8 -10    1.44    0.85
  -1   8 -10    2.41    0.68
  -1  -8  11    2.33    1.18
  -1  -8  11    1.59    0.88
  -1  -8  11    2.36    0.84
  -1  -8  11    0.37    0.76
   1   8 -11   -0.06    0.60
   1   8 -11   -0.58    0.94
   1   8 -11   -0.16    0.76
   1   8 -11    1.51    0.88
   6  -7   7   -0.43    0.49
   6  -7   7    1.31    0.77
   6  -7   7   -0.82    0.87
  -6   7  -7    0.70    0.70
  -6   7  -7   -0.67    0.95
  -6   7  -7    0.19    0.65
  -6   7  -7    0.43    0.62
   4  -7   8    0.10    0.54
   4  -7   8    0.82    0.60
   4  -7   8   -0.47    0.42
  -4   7  -8    0.11    0.42
  -4   7  -8   -0.55    0.68
  -4   7  -8    0.28    0.46
  -4   7  -8    0.38    0.67
   2  -7   9    1.97    0.59
   2  -7   9    1.20    0.80
   2  -7   9    0.28    0.75
  -2   7  -9    1.72    0.60
  -2   7  -9    1.13    0.51
  -2   7  -9    2.28    0.88
  -2   7  -9    1.37    0.91
  -2   7  -9    2.06    0.70
   0  -7  10    4.13    1.01
   0  -7  10    2.41    1.18
   0  -7  10    2.42    0.92
   0   7 -10    1.53    0.57
   0   7 -10    2.51    0.75
   0   7 -10    4.21    1.11
   0   7 -10    3.14    1.09
  -2  -7  11    4.22    0.87
  -2  -7  11    5.93    1.10
  -2  -7  11    4.56    1.53
   2   7 -11    7.40    1.60
   2   7 -11    3.90    1.17
   2   7 -11    4.50    1.05
   7  -6   6   -0.47    0.78
   7  -6   6    0.52    0.70
   7  -6   6    1.12    1.00
  -7   6  -6   -0.70    0.65
  -7   6  -6   -0.76    0.94
  -7   6  -6    0.17    0.60
   5  -6   7    0.58    0.59
   5  -6   7    1.03    0.57
   5  -6   7    0.83    0.45
   5  -6   7    1.92    0.92
  -5   6  -7   -0.01    0.51
  -5   6  -7    0.27    0.48
  -5   6  -7    1.01    0.75
  -5   6  -7    0.22    0.48
   3  -6   8    5.84    1.46
   3  -6   8    5.42    1.08
   3  -6   8    3.89    0.54
   3  -6   8    4.34    0.69
  -3   6  -8    5.90    1.34
  -3   6  -8    5.38    1.21
  -3   6  -8    3.86    0.74
  -3   6  -8    5.21    0.73
   1  -6   9    5.55    0.66
   1  -6   9    9.95    1.69
   1  -6   9    8.28    1.39
   1  -6   9    7.78    0.71
   1  -6   9    9.47    1.58
  -1   6  -9    8.34    1.58
  -1   6  -9    7.45    0.84
  -1   6  -9    6.95    0.87
  -1   6  -9    8.85    1.60
  -1   6  -9    8.06    1.08
  -1  -6  10    1.20    0.58
  -1  -6  10    0.75    0.80
  -1  -6  10    0.94    0.69
   1   6 -10   -0.05    0.57
   1   6 -10    0.24    0.41
   1   6 -10    0.68    0.60
  -3  -6  11    0.28    0.50
  -3  -6  11    0.00    0.59
  -3  -6  11    0.18    0.69
   3   6 -11   -0.67    0.62
   3   6 -11    0.77    0.82
   3   6 -11    0.83    0.72
   3   6 -11    0.28    0.64
   8  -5   5    0.82    0.91
   8  -5   5   -0.56    0.84
   8  -5   5   -0.30    0.65
  -8   5  -5    1.95    0.89
  -8   5  -5    2.16    1.35
   6  -5   6    1.04    0.90
   6  -5   6    1.84    0.66
   6  -5   6    1.08    0.88
  -6   5  -6    2.00    0.64
  -6   5  -6    0.33    0.53
  -6   5  -6   -0.48    0.57
  -6   5  -6    0.63    0.65
   4  -5   7   28.66    1.66
   4  -5   7   26.55    3.26
   4  -5   7   27.62    1.65
   4  -5   7   29.41    1.82
   4  -5   7   28.97    2.35
   4  -5   7   29.45    1.80
  -4   5  -7   25.80    2.31
  -4   5  -7   25.90    1.91
  -4   5  -7   27.70    2.16
   2  -5   8    9.44    1.23
   2  -5   8    6.77    0.97
  -2   5  -8    8.48    0.92
  -2   5  -8   10.89    1.72
  -2   5  -8    6.76    1.00
  -2   5  -8    8.19    0.85
   0  -5   9    0.32    0.52
   0  -5   9   -0.44    0.46
   0  -5   9    0.39    0.34
   0  -5   9   -1.02    0.53
   0   5  -9   -0.37    0.31
   0   5  -9   -0.74    0.57
   0   5  -9   -0.24    0.27
   0   5  -9    0.25    0.35
   0   5  -9    0.27    0.49
   0   5  -9   -0.11    0.36
  -2  -5  10   -1.11    0.55
  -2  -5  10    1.21    0.82
  -2  -5  10    1.47    0.65
   2   5 -10    0.58    0.43
   2   5 -10    1.52    0.62
   2   5 -10   -0.92    0.52
   2   5 -10    1.10    0.61
   4   5 -11    0.88    0.77
   4   5 -11    0.67    0.75
   4   5 -11    0.58    0.64
   7  -4   5    0.85    0.80
   7  -4   5    0.30    0.59
   7  -4   5    0.77    0.75
  -7   4  -5    1.25    0.73
  -7   4  -5    0.55    0.65
  -7   4  -5    0.51    0.62
   5  -4   6    2.74    0.92
   5  -4   6    2.17    0.57
   5  -4   6    2.40    0.58
   5  -4   6    2.66    0.94
  -5   4  -6    2.29    0.73
  -5   4  -6    1.93    0.57
  -5   4  -6    1.26    0.67
  -5   4  -6    3.34    1.10
   3  -4   7    3.02    0.81
   3  -4   7    2.51    0.34
   3  -4   7    2.18    0.87
   3  -4   7    2.82    0.51
  -3   4  -7    3.19    0.85
  -3   4  -7    1.67    0.78
  -3   4  -7    2.74    0.51
  -3   4  -7    2.63    0.68
   1  -4   8    7.88    1.05
   1  -4   8    7.98    1.27
  -1   4  -8    6.77    0.78
  -1   4  -8    7.42    0.97
  -1   4  -8    6.74    1.25
  -1   4  -8    6.06    0.83
  -1   4  -8    7.66    1.28
  -1  -4   9    0.07    0.57
  -1  -4   9   -0.35    0.29
  -1  -4   9    1.06    0.60
  -1  -4   9    0.24    0.52
   1   4  -9   -0.15    0.33
   1   4  -9    0.20    0.29
   1   4  -9    0.06    0.52
   1   4  -9    0.26    0.62
   1   4  -9    0.06    0.32
  -3  -4  10    1.66    0.68
  -3  -4  10    1.10    0.54
  -3  -4  10    1.52    0.88
  -3  -4  10    1.76    0.81
   3   4 -10    0.68    0.73
   3   4 -10    1.35    0.83
   3   4 -10    1.34    0.53
   3   4 -10    1.02    0.56
  -5  -4  11    1.00    0.96
  -5  -4  11    0.81    0.66
  -5  -4  11    0.45    0.56
  -5  -4  11    0.18    0.91
   5   4 -11    0.71    1.00
   5   4 -11   -1.07    0.72
   5   4 -11    0.80    0.80
   5   4 -11   -0.31    0.61
   8  -3   4   -0.92    0.78
   8  -3   4    0.21    0.74
   8  -3   4   -0.54    0.62
  -8   3  -4   -2.08    0.77
  -8   3  -4    0.80    0.85
   6  -3   5    0.86    0.50
   6  -3   5    0.52    0.48
   6  -3   5    1.94    0.84
   6  -3   5    1.36    0.71
  -6   3  -5    0.82    0.55
  -6   3  -5   -0.47    0.57
  -6   3  -5    1.42    0.79
  -6   3  -5    0.24    0.41
   4  -3   6    6.83    0.74
   4  -3   6    8.31    1.23
   4  -3   6    8.83    0.75
   4  -3   6   10.77    1.28
  -4   3  -6    9.79    1.00
  -4   3  -6    8.50    1.20
  -4   3  -6    9.41    1.03
  -4   3  -6    8.87    1.01
  -4   3  -6    7.46    0.73
   2  -3   7   -0.12    0.46
   2  -3   7   -0.01    0.20
   2  -3   7   -0.11    0.25
   2  -3   7   -0.65    0.34
  -2   3  -7   -0.26    0.30
  -2   3  -7    0.20    0.52
  -2   3  -7    0.14    0.41
  -2   3  -7   -0.02    0.27
  -2   3  -7   -0.09    0.25
   0  -3   8    6.04    0.34
   0  -3   8    5.69    0.65
   0  -3   8    7.92    1.24
   0  -3   8    6.17    0.34
   0  -3   8    7.94    1.32
   0  -3   8    6.69    1.12
   0   3  -8    7.22    1.01
   0   3  -8    5.28    0.77
   0   3  -8    7.08    1.21
   0   3  -8    5.17    0.71
   0   3  -8    6.08    0.82
  -2  -3   9   38.44    2.53
  -2  -3   9   35.64    2.33
  -2  -3   9   39.50    2.79
  -2  -3   9   36.13    2.20
  -2  -3   9   34.63    2.55
   2   3  -9   35.16    2.50
   2   3  -9   35.21    2.23
   2   3  -9   37.12    2.68
   2   3  -9   37.49    2.72
   2   3  -9   37.17    2.59
  -4  -3  10    3.43    0.96
  -4  -3  10    2.32    0.65
  -4  -3  10    2.85    0.83
  -4  -3  10    4.06    1.20
   4   3 -10    2.80    0.77
   4   3 -10    2.54    0.74
   4   3 -10    4.08    1.21
   4   3 -10    4.94    1.13
   4   3 -10    1.86    0.89
  -6  -3  11    0.54    0.93
  -6  -3  11    0.04    0.96
  -6  -3  11   -0.03    0.62
   6   3 -11    0.59    0.77
   6   3 -11    0.73    0.84
   6   3 -11   -0.64    0.63
   7  -2   4    0.38    0.69
   7  -2   4    0.80    0.64
   7  -2   4   -0.02    0.67
  -7   2  -4    1.65    0.72
  -7   2  -4    1.50    0.64
  -7   2  -4    2.50    0.90
   5  -2   5    0.78    0.63
   5  -2   5    1.43    0.63
   5  -2   5    1.19    0.49
   5  -2   5    1.19    0.49
  -5   2  -5    1.71    0.69
  -5   2  -5    0.87    0.51
  -5   2  -5    1.77    0.84
  -5   2  -5    1.19    0.57
   3  -2   6   -0.33    0.15
   3  -2   6    0.36    0.50
   3  -2   6    0.38    0.48
   3  -2   6   -0.53    0.24
   3  -2   6    0.07    0.18
  -3   2  -6   -0.05    0.18
  -3   2  -6    0.29    0.37
  -3   2  -6   -0.10    0.34
  -3   2  -6    0.20    0.14
  -3   2  -6    0.05    0.29
  -3   2  -6   -0.41    0.35
   1  -2   7   45.32    3.01
   1  -2   7   43.57    2.62
   1  -2   7   44.27    2.60
   1  -2   7   44.24    2.91
  -1   2  -7   44.58    2.80
  -1   2  -7   45.98    2.67
  -1   2  -7   46.99    2.96
  -1   2  -7   42.92    2.88
  -1  -2   8    4.89    0.64
  -1  -2   8    5.83    0.48
  -1  -2   8    6.61    0.88
  -1  -2   8    4.29    0.94
  -1  -2   8    5.43    1.00
   1   2  -8    4.65    0.94
   1   2  -8    6.18    0.83
   1   2  -8    6.33    0.84
   1   2  -8    6.55    0.79
   1   2  -8    5.09    0.97
  -3  -2   9   13.11    1.32
  -3  -2   9   11.96    1.35
  -3  -2   9    9.89    0.98
  -3  -2   9   11.03    1.16
  -3  -2   9   12.82    1.22
   3   2  -9   10.54    1.01
   3   2  -9    9.84    1.10
   3   2  -9    8.91    1.19
   3   2  -9   12.53    1.36
   3   2  -9   12.81    1.40
  -5  -2  10    1.31    0.68
  -5  -2  10   -0.83    0.46
  -5  -2  10    0.24    0.56
   5   2 -10    1.46    0.82
   5   2 -10   -0.12    0.88
   5   2 -10    0.31    0.67
   5   2 -10    0.44    0.56
   5   2 -10    1.75    0.75
   8  -1   3    0.88    0.73
   8  -1   3    0.24    0.80
   8  -1   3    2.31    0.98
  -8   1  -3    0.41    0.73
  -8   1  -3    3.33    1.13
  -8   1  -3    0.87    0.80
   6  -1   4    0.32    0.53
   6  -1   4    1.14    0.59
   6  -1   4    1.52    0.74
   6  -1   4    0.51    0.58
  -6   1  -4   -0.03    0.50
  -6   1  -4   -0.51    0.67
  -6   1  -4    1.13    0.61
  -6   1  -4    0.27    0.75
   4  -1   5   28.23    2.32
   4  -1   5   26.88    2.01
   4  -1   5   29.74    1.91
   4  -1   5   32.36    2.52
  -4   1  -5   28.22    2.26
  -4   1  -5   29.51    2.13
  -4   1  -5   28.48    2.10
  -4   1  -5   32.60    2.28
  -4   1  -5   32.42    2.07
   2  -1   6    2.59    0.55
   2  -1   6    2.14    0.23
   2  -1   6    1.72    0.60
   2  -1   6    1.71    0.71
   2  -1   6    2.78    0.42
  -2   1  -6    2.03    0.50
  -2   1  -6    2.46    0.65
  -2   1  -6    1.91    0.21
  -2   1  -6    2.36    0.63
  -2   1  -6    2.61    0.73
  -2   1  -6    2.70    0.47
   0  -1   7    9.91    1.10
   0  -1   7   11.76    0.99
   0  -1   7   10.17    1.07
   0  -1   7    9.92    0.95
   0   1  -7   11.59    1.02
   0   1  -7   11.20    0.99
   0   1  -7   10.76    1.13
  -2  -1   8    1.82    0.62
  -2  -1   8    1.02    0.41
  -2  -1   8    0.89    0.34
  -2  -1   8    1.18    0.59
  -2  -1   8    2.19    0.67
   2   1  -8    0.81    0.47
   2   1  -8    2.41    0.61
   2   1  -8    1.07    0.45
   2   1  -8    1.65    0.37
   2   1  -8    1.49    0.55
  -4  -1   9    2.61    0.80
  -4  -1   9    2.42    0.82
  -4  -1   9    1.54    0.75
  -4  -1   9    1.41    0.72
   4   1  -9    1.59    0.59
   4   1  -9    2.10    0.83
   4   1  -9    1.83    0.74
   4   1  -9    2.11    0.87
   4   1  -9    1.74    0.65
  -6  -1  10    8.27    1.17
  -6  -1  10    8.16    1.43
  -6  -1  10    8.33    1.36
   6   1 -10    8.79    1.59
   6   1 -10    8.73    1.58
   6   1 -10    8.62    1.69
   7   0   3    8.42    1.48
   7   0   3    9.30    1.55
  -7   0  -3    7.53    1.08
  -7   0  -3    8.72    1.57
  -7   0  -3    8.93    1.78
   5   0   4    0.50    0.53
   5   0   4   -0.30    0.34
   5   0   4    0.23    0.53
   5   0   4   -0.62    0.39
  -5   0  -4    0.34    0.56
  -5   0  -4   -0.23    0.57
  -5   0  -4   -0.18    0.49
  -5   0  -4   -0.44    0.43
   3   0   5   31.44    2.36
   3   0   5   33.03    1.97
   3   0   5   32.36    2.26
   3   0   5   32.71    2.18
  -3   0  -5   30.54    1.93
  -3   0  -5   33.29    2.36
  -3   0  -5   30.93    2.25
  -3   0  -5   28.62    2.13
  -3   0  -5   31.81    2.20
   1   0   6    2.69    0.24
   1   0   6    2.92    0.52
   1   0   6    2.00    0.66
   1   0   6    3.15    0.72
   1   0   6    2.08    0.67
   1   0   6    3.40    0.64
  -1   0  -6    3.52    0.61
  -1   0  -6    2.58    0.65
  -1   0  -6    2.71    0.65
  -1   0  -6    3.62    0.77
  -1   0  -6    2.74    0.25
  -1   0  -6    2.78    0.63
  -1   0   7    0.52    0.45
  -1   0   7    1.31    0.46
  -1   0   7    1.44    0.45
  -1   0   7    0.70    0.33
  -1   0   7    0.93    0.44
  -1   0   7    0.82    0.36
   1   0  -7    0.74    0.44
   1   0  -7    1.20    0.27
   1   0  -7    1.48    0.41
   1   0  -7    0.73    0.44
   1   0  -7    1.17    0.47
   1   0  -7    1.68    0.51
  -3   0   8   22.35    1.72
  -3   0   8   26.84    2.11
  -3   0   8   26.10    1.90
  -3   0   8   24.44    1.93
  -3   0   8   24.86    1.83
   3   0  -8   23.62    1.86
   3   0  -8   20.61    1.80
   3   0  -8   23.12    1.64
   3   0  -8   25.13    1.90
   3   0  -8   23.08    1.88
  -5   0   9    2.68    0.81
  -5   0   9    2.01    0.78
  -5   0   9    2.38    0.79
   5   0  -9    3.45    0.90
   5   0  -9    2.39    0.79
   5   0  -9    2.46    0.71
   5   0  -9    2.30    1.08
  -7   0  10    1.34    0.85
  -7   0  10    2.02    0.68
   7   0 -10    2.85    0.84
   7   0 -10    4.02    1.18
   7   0 -10    4.19    1.12
   7   0 -10    1.11    0.84
   6   1   3    7.51    1.34
   6   1   3    8.64    1.43
   6   1   3    7.14    1.31
   6   1   3    8.47    1.45
  -6  -1  -3    9.90    1.39
  -6  -1  -3    4.91    0.61
  -6  -1  -3    5.45    0.75
  -6  -1  -3    7.91    1.63
  -6  -1  -3    7.54    1.30
   4   1   4    2.14    0.62
   4   1   4    2.22    0.75
   4   1   4    2.30    0.64
   4   1   4    2.58    0.70
  -4  -1  -4    3.04    0.37
  -4  -1  -4    2.12    0.83
  -4  -1  -4    2.82    0.45
  -4  -1  -4    2.58    0.71
  -4  -1  -4    1.95    0.75
   2   1   5   31.50    2.18
   2   1   5   30.50    2.14
   2   1   5   31.52    1.92
   2   1   5   31.47    1.87
   2   1   5   30.20    2.23
   2   1   5   31.51    2.34
  -2  -1  -5   33.29    2.28
  -2  -1  -5   31.30    1.89
  -2  -1  -5   32.28    2.22
  -2  -1  -5   28.98    2.11
  -2  -1  -5   30.94    1.88
  -2  -1  -5   31.77    2.24
  -2  -1  -5   32.55    1.88
   0   1   6    1.61    0.50
   0   1   6    2.41    0.58
   0   1   6    1.50    0.43
   0   1   6    2.08    0.49
   0   1   6    2.23    0.68
   0  -1  -6    2.90    0.64
   0  -1  -6    1.62    0.46
   0  -1  -6    1.56    0.53
   0  -1  -6    1.78    0.34
   0  -1  -6    1.81    0.58
   0  -1  -6    1.85    0.33
  -2   1   7    1.63    0.51
  -2   1   7    1.00    0.46
  -2   1   7    1.76    0.55
  -2   1   7    1.58    0.38
  -2   1   7    1.18    0.60
  -2   1   7    2.11    0.50
  -2   1   7    1.07    0.54
   2  -1  -7    1.94    0.60
   2  -1  -7    1.47    0.36
   2  -1  -7    1.73    0.55
   2  -1  -7    0.96    0.41
   2  -1  -7    1.34    0.61
   2  -1  -7    1.79    0.43
   2  -1  -7    1.43    0.55
  -4   1   8   16.58    1.45
  -4   1   8   16.72    1.31
  -4   1   8   15.18    1.29
  -4   1   8   16.72    1.49
  -4   1   8   16.02    1.56
   4  -1  -8   14.75    1.27
   4  -1  -8   13.58    1.31
   4  -1  -8   12.67    1.37
   4  -1  -8   12.90    1.38
   4  -1  -8   15.42    1.45
  -6   1   9    2.31    0.69
  -6   1   9    0.07    0.55
  -6   1   9    0.94    0.68
  -6   1   9    0.77    0.74
   6  -1  -9    0.97    0.70
   6  -1  -9    1.62    0.66
   6  -1  -9    1.20    0.81
   6  -1  -9    1.64    0.60
  -8   1  10   -0.62    0.90
  -8   1  10    1.53    0.95
  -8   1  10    0.91    1.08
  -8   1  10    0.96    0.82
  -8   1  10    0.08    0.94
   8  -1 -10    2.12    1.08
   8  -1 -10    0.31    0.64
   8  -1 -10    2.15    0.93
   7   2   2    1.74    1.10
   7   2   2    0.10    0.63
   7   2   2    1.17    0.67
   7   2   2    0.02    0.79
  -7  -2  -2    0.47    0.74
  -7  -2  -2    1.88    1.01
  -7  -2  -2    0.57    0.85
  -7  -2  -2    0.51    0.65
   5   2   3    4.54    1.01
   5   2   3    5.52    1.17
   5   2   3    3.97    1.09
   5   2   3    4.58    0.96
  -5  -2  -3    4.63    1.20
  -5  -2  -3    4.43    1.01
  -5  -2  -3    3.09    0.70
  -5  -2  -3    2.88    0.67
   3   2   4    2.46    0.70
   3   2   4    2.03    0.73
   3   2   4    2.29    0.64
   3   2   4    2.92    0.72
  -3  -2  -4    1.84    0.51
  -3  -2  -4    1.28    0.59
  -3  -2  -4    2.40    0.58
  -3  -2  -4    1.99    0.63
  -3  -2  -4    2.38    0.75
  -3  -2  -4    2.23    0.70
  -3  -2  -4    2.73    0.77
   1   2   5    0.53    0.31
   1   2   5    0.53    0.34
   1   2   5    0.27    0.40
   1   2   5    0.30    0.33
   1   2   5   -0.27    0.32
   1   2   5    0.19    0.28
  -1  -2  -5    0.44    0.30
  -1  -2  -5    0.49    0.37
  -1  -2  -5    0.46    0.33
  -1  -2  -5    0.01    0.44
  -1  -2  -5    0.17    0.33
  -1  -2  -5    0.63    0.46
  -1  -2  -5    0.12    0.25
  -1   2   6    0.78    0.53
  -1   2   6    0.77    0.39
  -1   2   6    0.19    0.37
  -1   2   6    0.66    0.30
  -1   2   6    0.85    0.37
  -1   2   6    0.82    0.43
   1  -2  -6    0.77    0.39
   1  -2  -6    0.75    0.29
   1  -2  -6    0.56    0.38
   1  -2  -6    0.23    0.25
   1  -2  -6    0.50    0.30
   1  -2  -6    0.67    0.35
   1  -2  -6    0.89    0.64
  -3   2   7    3.97    0.55
  -3   2   7    4.13    0.91
  -3   2   7    6.44    1.14
  -3   2   7    3.82    0.74
  -3   2   7    4.41    0.84
  -3   2   7    3.49    0.61
  -3   2   7    5.14    0.99
   3  -2  -7    4.10    0.81
   3  -2  -7    4.39    0.88
   3  -2  -7    5.92    1.05
   3  -2  -7    4.15    0.76
   3  -2  -7    3.87    0.73
  -5   2   8    9.33    0.95
  -5   2   8   10.36    1.20
  -5   2   8    9.38    1.25
  -5   2   8   11.54    1.36
  -5   2   8    9.88    0.97
   5  -2  -8    9.66    1.13
   5  -2  -8   11.03    1.29
   5  -2  -8   10.26    1.08
   5  -2  -8   11.90    1.31
  -7   2   9    3.08    0.89
  -7   2   9    2.89    0.96
  -7   2   9    1.16    0.79
  -7   2   9    1.74    0.62
   7  -2  -9    1.77    0.63
   7  -2  -9    0.82    0.76
   7  -2  -9    1.02    0.86
   7  -2  -9    2.83    0.95
   6   3   2   -0.03    0.63
   6   3   2    0.51    0.55
   6   3   2    0.70    0.59
  -6  -3  -2    0.96    0.78
  -6  -3  -2    1.30    0.94
  -6  -3  -2    1.29    0.73
   4   3   3    5.29    1.12
   4   3   3    7.57    0.93
   4   3   3    6.90    0.95
   4   3   3    6.36    0.91
  -4  -3  -3    5.20    0.74
  -4  -3  -3    3.77    0.91
  -4  -3  -3    6.29    1.25
  -4  -3  -3    5.59    0.80
  -4  -3  -3    7.37    1.05
   2   3   4    7.07    0.83
   2   3   4    4.40    0.91
   2   3   4    4.31    0.81
   2   3   4    7.31    0.88
   2   3   4    5.05    0.95
  -2  -3  -4    5.54    0.73
  -2  -3  -4    7.50    0.77
  -2  -3  -4    4.27    0.95
  -2  -3  -4    7.53    0.92
  -2  -3  -4    6.53    0.93
  -2  -3  -4    4.74    0.86
  -2  -3  -4    7.34    0.93
  -2  -3  -4    8.63    0.99
   0   3   5   31.62    2.10
   0   3   5   32.23    2.27
   0   3   5   32.08    2.21
   0   3   5   30.84    2.02
   0   3   5   32.49    2.20
   0   3   5   31.10    2.02
   0   3   5   34.03    2.22
   0  -3  -5   30.78    2.12
   0  -3  -5   31.76    2.07
   0  -3  -5   31.88    2.20
   0  -3  -5   33.56    2.13
   0  -3  -5   31.40    2.01
   0  -3  -5   32.56    2.26
  -2   3   6    1.91    0.39
  -2   3   6    1.90    0.63
  -2   3   6    3.83    0.88
  -2   3   6    1.59    0.57
  -2   3   6    1.60    0.60
   2  -3  -6    1.60    0.39
   2  -3  -6    1.26    0.43
   2  -3  -6    2.04    0.53
   2  -3  -6    1.51    0.48
   2  -3  -6    2.26    0.58
   2  -3  -6    2.18    0.60
   2  -3  -6    2.12    1.12
  -4   3   7    9.31    1.56
  -4   3   7    5.62    0.57
  -4   3   7    6.91    1.15
  -4   3   7    6.58    0.61
  -4   3   7    7.37    0.96
  -4   3   7    8.16    1.37
   4  -3  -7    5.69    0.82
   4  -3  -7    9.08    1.37
   4  -3  -7    8.60    1.39
   4  -3  -7    5.94    0.87
  -6   3   8   -0.24    0.41
  -6   3   8    0.43    0.47
  -6   3   8   -0.27    0.39
  -6   3   8   -0.82    0.54
  -6   3   8    0.00    0.51
   6  -3  -8   -0.47    0.41
   6  -3  -8   -0.46    0.53
  -8   3   9   -0.55    0.76
  -8   3   9    0.90    0.88
  -8   3   9    0.08    0.60
  -8   3   9    0.31    0.71
   8  -3  -9    0.29    0.93
   8  -3  -9    0.77    0.71
   8  -3  -9    1.23    0.98
   5   4   2    1.33    0.64
   5   4   2    0.49    0.50
   5   4   2   -0.65    0.66
   5   4   2    0.28    0.51
  -5  -4  -2    0.66    0.72
  -5  -4  -2    0.82    0.54
   3   4   3    0.23    0.42
   3   4   3    0.72    0.61
   3   4   3    0.65    0.46
   3   4   3    0.83    0.57
  -3  -4  -3    0.46    0.54
  -3  -4  -3   -0.14    0.54
  -3  -4  -3    0.33    0.50
  -3  -4  -3    0.77    0.53
  -3  -4  -3    0.76    0.47
   1   4   4    5.36    0.92
   1   4   4    4.13    0.87
   1   4   4    3.50    0.79
   1   4   4    4.79    0.96
   1   4   4    4.46    0.97
   1   4   4    3.67    0.91
  -1  -4  -4    3.62    0.84
  -1  -4  -4    3.25    0.86
  -1  -4  -4    2.96    0.73
  -1  -4  -4    4.22    0.86
  -1   4   5   10.23    1.00
  -1   4   5   10.42    1.01
  -1   4   5   10.05    1.07
  -1   4   5    9.64    1.05
  -1   4   5    9.90    0.84
  -1   4   5   10.04    1.08
   1  -4  -5   10.37    0.86
   1  -4  -5    9.81    0.96
   1  -4  -5   10.41    1.10
   1  -4  -5    8.91    0.94
   1  -4  -5    9.66    1.03
   1  -4  -5   10.54    1.03
  -3   4   6   12.04    1.28
  -3   4   6   10.60    1.17
  -3   4   6   11.90    0.73
  -3   4   6   11.81    1.34
  -3   4   6   11.22    0.72
   3  -4  -6   13.00    1.20
   3  -4  -6   13.03    1.31
   3  -4  -6   12.39    1.17
  -5   4   7   18.54    1.74
  -5   4   7   19.93    1.59
  -5   4   7   18.14    1.82
  -5   4   7   18.04    1.70
  -5   4   7   15.80    1.70
  -5   4   7   20.29    1.12
   5  -4  -7   17.84    1.66
   5  -4  -7   17.29    1.44
   5  -4  -7   24.37    2.13
   5  -4  -7   20.00    1.80
  -7   4   8    4.95    1.20
  -7   4   8    2.78    0.69
  -7   4   8    3.52    1.01
  -7   4   8    4.38    1.02
  -7   4   8    3.11    0.64
  -7   4   8    2.15    0.92
   7  -4  -8    3.21    1.17
   7  -4  -8    2.89    0.91
   6   5   1    2.85    1.07
   6   5   1    0.29    0.84
  -6  -5  -1    1.98    1.01
  -6  -5  -1    1.20    0.98
   4   5   2   -0.47    0.50
   4   5   2    0.52    0.59
   4   5   2    0.85    0.73
   4   5   2    0.65    0.60
   4   5   2    0.97    0.41
  -4  -5  -2   -0.39    0.62
  -4  -5  -2    0.23    0.62
  -4  -5  -2    0.29    0.48
  -4  -5  -2    0.31    0.75
   2   5   3   10.45    0.97
   2   5   3    8.59    1.14
   2   5   3    7.85    1.08
   2   5   3    6.73    1.25
   2   5   3    8.61    0.96
  -2  -5  -3    7.20    1.02
  -2  -5  -3    7.69    1.02
  -2  -5  -3    7.87    0.94
  -2  -5  -3    8.80    1.13
  -2  -5  -3    8.15    1.39
   0   5   4    5.82    0.78
   0   5   4    6.09    1.01
   0   5   4    6.63    1.00
   0   5   4    6.12    0.84
   0   5   4    6.88    1.12
   0   5   4    2.51    1.21
   0  -5  -4    6.86    0.98
   0  -5  -4    7.57    1.25
   0  -5  -4    5.75    0.76
   0  -5  -4    7.23    1.15
  -2   5   5    2.93    0.44
  -2   5   5    2.37    0.72
  -2   5   5    2.52    0.68
  -2   5   5    2.55    0.67
  -2   5   5    2.65    0.67
  -2   5   5    2.04    0.63
   2  -5  -5    1.27    0.61
   2  -5  -5    2.55    0.69
   2  -5  -5    2.41    0.64
   2  -5  -5    3.10    0.81
   2  -5  -5    2.69    0.43
  -4   5   6   10.38    1.15
  -4   5   6   10.57    1.33
  -4   5   6   10.62    1.26
  -4   5   6    9.85    1.13
   4  -5  -6    8.55    1.06
   4  -5  -6    9.31    1.00
   4  -5  -6    9.85    1.31
   4  -5  -6    8.89    1.19
  -6   5   7    8.47    1.18
  -6   5   7    7.59    1.45
  -6   5   7    7.53    0.99
  -6   5   7    8.10    1.43
  -6   5   7   10.69    1.66
   6  -5  -7    7.43    1.01
   6  -5  -7    8.98    1.19
   6  -5  -7    7.66    0.87
  -8   5   8    0.59    0.64
  -8   5   8   -0.20    0.98
  -8   5   8   -0.92    0.70
   8  -5  -8   -0.78    0.46
   8  -5  -8   -0.71    0.83
   5   6   1   -0.49    0.56
   5   6   1    0.51    0.80
  -5  -6  -1    0.33    0.93
  -5  -6  -1   -0.44    0.68
  -5  -6  -1    1.86    1.04
   3   6   2    2.51    0.97
   3   6   2    2.92    0.65
   3   6   2    2.43    0.66
   3   6   2    2.38    0.80
  -3  -6  -2    3.04    0.91
  -3  -6  -2    2.46    0.92
  -3  -6  -2    1.38    0.98
  -3  -6  -2    3.46    0.94
   1   6   3   19.79    1.73
   1   6   3   19.98    1.55
   1   6   3   16.91    1.64
   1   6   3   17.64    1.62
   1   6   3   19.12    1.58
  -1  -6  -3   17.73    1.60
  -1  -6  -3   22.04    1.86
  -1  -6  -3   21.05    1.74
  -1  -6  -3   16.83    1.57
  -1  -6  -3   18.43    1.53
  -1   6   4    6.11    1.15
  -1   6   4    4.09    0.72
  -1   6   4    7.24    1.16
  -1   6   4    6.97    1.19
  -1   6   4    6.07    1.15
  -1   6   4    5.19    0.97
   1  -6  -4    4.24    0.61
   1  -6  -4    5.61    0.94
   1  -6  -4    7.95    1.34
   1  -6  -4    5.84    1.17
  -3   6   5    4.14    0.93
  -3   6   5    7.83    1.12
   3  -6  -5    7.61    1.02
   3  -6  -5    4.85    0.95
   3  -6  -5    5.27    0.98
  -5   6   6    0.40    0.51
  -5   6   6    0.40    0.53
  -5   6   6    0.06    0.59
  -5   6   6    0.14    0.46
   5  -6  -6    1.18    0.48
   5  -6  -6   -0.35    0.41
   5  -6  -6    0.26    0.48
   5  -6  -6    0.05    0.46
  -7   6   7    3.20    1.10
  -7   6   7    3.84    1.00
  -7   6   7    5.53    1.50
   7  -6  -7    3.02    0.66
   7  -6  -7    3.60    1.18
   7  -6  -7    4.60    1.15
   7  -6  -7    4.41    1.06
   4   7   1    0.89    0.87
   4   7   1    0.38    0.69
  -4  -7  -1    0.01    0.91
  -4  -7  -1    0.61    0.78
  -4  -7  -1    1.30    0.93
   2   7   2    2.51    0.66
   2   7   2    2.53    0.85
   2   7   2    2.21    0.82
   2   7   2    4.67    0.76
   2   7   2    3.95    1.05
  -2  -7  -2    3.01    0.85
  -2  -7  -2    5.12    1.15
  -2  -7  -2    5.68    1.34
  -2  -7  -2    4.30    1.10
   0   7   3    5.10    1.12
   0   7   3    4.50    0.93
   0   7   3    3.47    0.89
   0   7   3    2.92    1.00
   0   7   3    5.08    1.06
   0  -7  -3    4.09    1.16
   0  -7  -3    4.70    0.85
   0  -7  -3    3.76    0.97
   0  -7  -3    4.15    0.92
  -2   7   4    6.12    1.08
  -2   7   4    5.83    1.20
  -2   7   4    6.11    1.16
  -2   7   4    3.33    0.49
  -2   7   4    5.10    1.04
  -2   7   4    5.22    1.02
   2  -7  -4    5.21    1.13
   2  -7  -4    4.26    0.80
   2  -7  -4    5.56    1.11
   2  -7  -4    4.32    1.20
   2  -7  -4    4.35    0.64
  -4   7   5    0.49    0.52
  -4   7   5    1.17    0.60
  -4   7   5    0.66    0.65
  -4   7   5    0.79    0.50
   4  -7  -5    0.89    0.56
   4  -7  -5    1.38    0.73
   4  -7  -5    0.04    0.44
   4  -7  -5    0.36    0.54
  -6   7   6    0.23    0.53
  -6   7   6    0.00    0.53
  -6   7   6   -0.49    0.73
  -6   7   6   -0.20    0.41
   6  -7  -6    1.27    0.65
   6  -7  -6   -1.03    0.51
   6  -7  -6    0.71    0.58
  -8   7   7    0.04    0.59
  -8   7   7   -0.79    0.74
  -8   7   7    1.41    0.89
   8  -7  -7    0.15    0.92
   8  -7  -7    1.89    1.09
   3   8   1    4.31    1.18
   3   8   1    2.92    1.07
  -3  -8  -1    2.93    1.22
  -3  -8  -1    3.76    1.19
  -3  -8  -1    5.20    1.43
   1   8   2    1.54    0.58
   1   8   2    1.69    0.57
   1   8   2    1.03    0.78
   1   8   2    1.54    0.91
   1   8   2    1.74    0.76
  -1  -8  -2    0.80    0.85
  -1  -8  -2    4.58    0.96
  -1  -8  -2    2.22    0.82
  -1  -8  -2    1.56    0.74
  -1  -8  -2    1.53    0.61
  -1   8   3   14.91    1.61
  -1   8   3   12.41    1.36
  -1   8   3   12.04    1.39
  -1   8   3   13.79    1.45
  -1   8   3   11.27    1.18
  -1   8   3   12.15    1.31
   1  -8  -3   12.45    1.44
   1  -8  -3   13.79    1.23
   1  -8  -3   11.92    1.16
  -3   8   4    8.81    1.53
  -3   8   4    8.64    1.09
  -3   8   4    9.31    1.19
  -3   8   4    7.41    1.03
   3  -8  -4    9.64    1.57
   3  -8  -4   11.58    1.68
   3  -8  -4    7.58    1.12
  -5   8   5    2.05    0.77
  -5   8   5    1.06    0.71
  -5   8   5    1.53    0.70
  -5   8   5    0.78    0.82
   5  -8  -5    2.85    0.94
   5  -8  -5    1.82    0.70
   5  -8  -5    2.06    0.93
  -7   8   6    0.68    0.74
  -7   8   6    1.79    1.08
  -7   8   6    1.10    0.85
   7  -8  -6    1.96    1.18
   7  -8  -6   -0.16    0.54
   7  -8  -6    1.48    1.13
   2   9   1    0.12    0.98
   2   9   1    0.45    0.71
  -2  -9  -1    0.59    0.83
  -2  -9  -1   -0.06    0.97
  -2  -9  -1    0.85    0.78
   0   9   2    0.04    0.52
   0   9   2    0.72    0.53
   0   9   2    0.61    0.55
   0   9   2   -0.88    0.87
   0   9   2    1.25    0.85
   0  -9  -2   -0.04    0.68
   0  -9  -2    0.63    0.78
   0  -9  -2    0.05    0.56
  -2   9   3    1.29    0.69
  -2   9   3    2.23    0.78
  -2   9   3    0.91    0.62
  -2   9   3    0.98    0.79
  -2   9   3    1.22    0.82
   2  -9  -3    1.86    1.02
   2  -9  -3    2.64    0.90
   2  -9  -3    1.78    0.56
   2  -9  -3    1.07    0.53
   2  -9  -3    1.24    0.85
  -4   9   4    3.59    1.21
  -4   9   4    3.74    0.92
  -4   9   4    4.61    1.08
  -4   9   4    4.49    1.28
   4  -9  -4    4.67    1.24
   4  -9  -4    4.45    1.00
   4  -9  -4    3.53    1.28
  -6   9   5    6.83    1.54
   6  -9  -5    6.80    1.66
   6  -9  -5    5.17    1.44
   6  -9  -5    6.03    1.21
   1  10   1    0.35    1.13
   1  10   1    0.23    0.78
  -1 -10  -1   -0.20    1.03
  -1 -10  -1    0.47    0.83
  -1  10   2    2.12    0.80
  -1  10   2    1.45    1.02
  -1  10   2    2.97    0.92
  -1  10   2    1.45    0.77
   1 -10  -2   -0.06    0.80
   1 -10  -2    1.89    0.75
   1 -10  -2    2.20    0.98
  -3  10   3    2.85    1.15
  -3  10   3    5.72    1.30
  -3  10   3    5.27    1.12
  -3  10   3    4.26    1.15
  -3  10   3    3.59    1.24
   3 -10  -3    4.48    1.22
   3 -10  -3    4.60    1.23
   3 -10  -3    3.19    0.59
   3 -10  -3    4.63    1.28
  -5  10   4   -0.09    0.73
  -5  10   4    0.03    0.55
  -5  10   4    0.50    0.90
   5 -10  -4    0.63    0.63
   5 -10  -4    2.01    1.04
   5 -10  -4   -0.51    0.61
  -7  10   5    3.77    1.53
  -7  10   5    1.84    1.10
  -2  11   2   -0.07    0.61
  -2  11   2    1.84    0.97
   2 -11  -2   -0.39    0.59
   2 -11  -2   -0.25    0.87
  -4  11   3    2.66    0.95
  -4  11   3    2.27    0.94
   4 -11  -3    1.06    0.88
   4 -11  -3    1.21    0.87
   4  -8   9    2.01    0.92
   4  -8   9    0.30    0.68
   4  -8   9   -0.11    0.80
   4  -8   9   -0.49    0.51
  -4   8  -9   -0.08    0.71
  -4   8  -9   -0.48    0.60
  -4   8  -9   -0.08    0.77
  -4   8  -9    0.28    0.53
  -4   8  -9    1.01    0.80
   2  -8  10    0.46    0.84
   2  -8  10    0.32    0.56
   2  -8  10    1.51    0.77
   2  -8  10   -0.23    0.66
  -2   8 -10    0.67    0.92
  -2   8 -10    0.17    0.43
  -2   8 -10    0.35    0.75
  -2   8 -10   -0.58    0.53
  -2   8 -10    2.17    0.84
   0  -8  11    1.34    1.07
   0  -8  11    4.96    1.42
   0  -8  11    0.17    0.70
   0  -8  11    2.02    0.87
   0   8 -11    3.17    1.21
   0   8 -11    0.25    0.96
   0   8 -11    1.40    0.79
   0   8 -11    1.81    0.75
   5  -7   8    0.77    0.91
   5  -7   8    1.27    0.51
   5  -7   8   -0.06    0.85
  -5   7  -8    0.80    0.66
  -5   7  -8    0.45    0.55
  -5   7  -8    0.16    0.81
   3  -7   9    0.45    0.66
   3  -7   9    0.18    0.71
   3  -7   9    1.85    0.95
   3  -7   9   -0.17    0.32
  -3   7  -9    1.48    0.83
  -3   7  -9    0.82    0.56
  -3   7  -9    0.94    0.49
  -3   7  -9    0.55    0.71
  -3   7  -9    1.57    0.69
   1  -7  10   -0.09    0.77
   1  -7  10    0.34    0.77
   1  -7  10   -0.48    0.40
   1  -7  10    0.30    0.45
  -1   7 -10   -0.40    0.54
  -1   7 -10   -1.24    0.65
  -1   7 -10    0.62    0.75
  -1   7 -10    0.86    0.49
  -1  -7  11   -0.21    0.74
  -1  -7  11    0.64    0.89
  -1  -7  11    1.42    0.87
   1   7 -11    0.64    0.90
   1   7 -11    1.42    0.74
   1   7 -11   -0.20    0.51
   1   7 -11    0.20    0.56
   6  -6   7   -0.42    0.68
   6  -6   7    0.31    0.55
   6  -6   7    0.36    0.58
  -6   6  -7    0.94    1.01
  -6   6  -7    0.66    0.73
  -6   6  -7    0.94    0.65
  -6   6  -7    0.09    0.63
   4  -6   8    2.50    0.84
   4  -6   8    0.93    0.43
   4  -6   8    1.29    0.42
   4  -6   8    0.22    0.44
   4  -6   8    1.07    0.45
   4  -6   8    0.87    0.73
  -4   6  -8    1.23    0.56
  -4   6  -8    1.27    0.74
  -4   6  -8    0.52    0.56
  -4   6  -8    1.51    0.76
  -4   6  -8    1.57    0.59
   2  -6   9   -0.25    0.24
   2  -6   9   -0.05    0.25
   2  -6   9   -0.71    0.49
   2  -6   9    0.28    0.61
   2  -6   9    0.65    0.57
  -2   6  -9    0.14    0.49
  -2   6  -9    0.05    0.40
  -2   6  -9    0.40    0.52
  -2   6  -9    0.36    0.57
  -2   6  -9   -0.28    0.45
   0  -6  10    0.39    0.70
   0  -6  10    0.07    0.52
   0  -6  10    0.83    0.44
   0  -6  10    1.20    0.59
   0   6 -10    0.60    0.44
   0   6 -10    0.01    0.53
   0   6 -10    2.00    0.81
   0   6 -10    0.75    0.47
   0   6 -10    1.01    0.72
  -2  -6  11    1.20    0.73
  -2  -6  11    1.53    0.82
   2   6 -11    3.25    0.97
   2   6 -11   -0.43    0.74
   2   6 -11    0.49    0.50
   2   6 -11   -0.30    0.82
   7  -5   6    0.19    0.97
   7  -5   6    0.97    0.57
   7  -5   6   -0.19    0.89
  -7   5  -6    0.51    0.74
  -7   5  -6    1.15    0.75
  -7   5  -6    0.36    0.84
   5  -5   7    3.75    0.89
   5  -5   7    3.68    1.01
   5  -5   7    3.56    1.05
   5  -5   7    4.87    0.81
  -5   5  -7    3.14    0.83
  -5   5  -7    3.48    0.86
  -5   5  -7    3.24    0.91
  -5   5  -7    3.63    1.02
   3  -5   8    1.83    0.88
   3  -5   8    2.40    0.85
  -3   5  -8    3.26    0.70
  -3   5  -8    3.27    0.61
  -3   5  -8    3.81    1.03
   1  -5   9    1.48    0.86
   1  -5   9    0.18    0.15
   1  -5   9    0.17    0.37
   1  -5   9    0.41    0.50
  -1   5  -9    0.31    0.41
  -1   5  -9    1.88    0.79
  -1   5  -9   -0.05    0.41
  -1   5  -9    0.18    0.32
  -1  -5  10   -0.07    0.46
  -1  -5  10    0.89    0.60
  -1  -5  10    0.30    0.78
   1   5 -10    1.05    0.47
   1   5 -10    0.56    0.49
   1   5 -10    0.61    0.54
   1   5 -10    0.87    0.60
   1   5 -10    1.06    0.86
  -3  -5  11   -0.13    0.55
  -3  -5  11   -0.31    0.58
   3   5 -11   -0.59    0.53
   3   5 -11    0.11    0.63
   3   5 -11    0.65    0.77
   3   5 -11   -0.31    0.40
   8  -4   5    0.57    0.98
   8  -4   5   -0.26    0.72
  -8   4  -5    1.23    1.26
   6  -4   6    3.70    1.14
   6  -4   6    5.26    0.96
   6  -4   6    2.81    1.01
  -6   4  -6    3.37    0.95
  -6   4  -6    5.84    1.45
  -6   4  -6    4.22    0.88
   4  -4   7   10.14    0.79
   4  -4   7   11.15    1.35
   4  -4   7    8.62    0.75
   4  -4   7   10.24    1.41
  -4   4  -7   10.66    1.20
  -4   4  -7    9.52    1.15
  -4   4  -7    8.34    0.97
  -4   4  -7   11.72    1.43
   2  -4   8    3.56    1.01
   2  -4   8    3.60    0.67
   2  -4   8    2.99    0.92
  -2   4  -8    3.03    0.81
  -2   4  -8    2.62    0.62
  -2   4  -8    2.66    0.60
  -2   4  -8    1.36    0.74
  -2   4  -8    2.27    0.65
   0  -4   9    5.32    0.45
   0  -4   9    8.16    0.98
   0  -4   9    5.98    1.11
   0   4  -9    7.37    0.90
   0   4  -9    7.48    0.97
   0   4  -9    5.58    0.49
   0   4  -9    7.53    0.85
   0   4  -9    7.13    1.00
   0   4  -9    6.64    1.24
  -2  -4  10    2.33    0.83
  -2  -4  10    5.07    0.68
  -2  -4  10    4.05    0.92
   2   4 -10    3.55    0.93
   2   4 -10    3.78    0.72
   2   4 -10    3.95    1.09
   2   4 -10    5.02    1.27
  -4  -4  11    1.97    0.77
  -4  -4  11    3.34    1.04
  -4  -4  11    2.92    0.81
   4   4 -11    2.56    0.95
   4   4 -11    1.59    0.88
   4   4 -11    3.92    1.25
   4   4 -11    2.58    0.83
   7  -3   5    0.22    0.75
   7  -3   5    1.99    1.09
   7  -3   5    0.86    0.64
  -7   3  -5    0.90    0.75
  -7   3  -5    0.51    0.59
  -7   3  -5    0.05    0.89
   5  -3   6    1.05    0.42
   5  -3   6    0.48    0.69
   5  -3   6    0.58    0.69
  -5   3  -6    0.23    0.55
  -5   3  -6    1.00    0.54
  -5   3  -6   -0.12    0.44
  -5   3  -6   -0.40    0.48
   3  -3   7    6.66    1.30
   3  -3   7    4.24    0.34
   3  -3   7    3.32    0.65
   3  -3   7    3.76    0.43
   3  -3   7    4.86    1.01
   3  -3   7    4.10    0.35
  -3   3  -7    5.21    0.85
  -3   3  -7    4.91    1.12
  -3   3  -7    4.95    0.94
  -3   3  -7    4.96    0.48
  -3   3  -7    5.53    1.06
   1  -3   8    2.26    0.49
   1  -3   8    2.03    0.73
   1  -3   8    3.45    0.72
   1  -3   8    2.74    0.84
  -1   3  -8    3.38    0.81
  -1   3  -8    1.74    0.54
  -1   3  -8    3.42    0.75
  -1   3  -8    2.47    0.77
  -1   3  -8    3.22    0.71
  -1  -3   9    7.47    0.62
  -1  -3   9    8.63    0.86
  -1  -3   9    9.20    1.47
  -1  -3   9    8.19    1.07
  -1  -3   9   10.28    1.11
   1   3  -9    8.99    1.03
   1   3  -9    9.70    1.13
   1   3  -9    8.50    1.08
   1   3  -9    7.07    0.92
   1   3  -9    8.28    0.66
   1   3  -9    7.52    1.09
  -3  -3  10    6.99    0.97
  -3  -3  10    7.02    0.90
  -3  -3  10    4.44    0.86
  -3  -3  10    8.50    1.46
   3   3 -10    5.15    1.31
   3   3 -10    5.24    1.01
   3   3 -10    6.54    1.27
  -5  -3  11    0.48    0.69
  -5  -3  11    3.29    1.02
  -5  -3  11    1.27    0.81
   5   3 -11    2.05    1.01
   5   3 -11    1.79    0.87
   5   3 -11    0.89    0.64
   5   3 -11    2.31    1.05
   8  -2   4   -0.22    0.73
   8  -2   4   -1.02    0.80
   8  -2   4    0.26    0.69
  -8   2  -4   -0.88    0.73
  -8   2  -4    0.17    0.85
   6  -2   5    0.86    0.52
   6  -2   5   -0.44    0.53
   6  -2   5    1.03    0.58
   6  -2   5    0.00    0.69
  -6   2  -5   -0.40    0.65
  -6   2  -5   -0.84    0.72
  -6   2  -5    0.15    0.52
  -6   2  -5    0.07    0.52
   4  -2   6    0.79    0.55
   4  -2   6    0.60    0.36
   4  -2   6    0.52    0.62
   4  -2   6    0.77    0.37
  -4   2  -6    0.79    0.69
  -4   2  -6    0.06    0.32
  -4   2  -6   -0.30    0.45
  -4   2  -6    0.68    0.47
  -4   2  -6    0.65    0.53
   2  -2   7    3.96    0.59
   2  -2   7    6.10    1.14
   2  -2   7    5.33    0.55
   2  -2   7    7.08    1.02
  -2   2  -7    5.22    1.07
  -2   2  -7    4.89    0.95
  -2   2  -7    5.54    1.04
  -2   2  -7    4.64    0.54
   0  -2   8    7.26    1.22
   0  -2   8    7.35    0.92
   0   2  -8    6.81    1.18
   0   2  -8    6.10    0.87
   0   2  -8    7.29    0.83
   0   2  -8    7.34    0.95
   0   2  -8    8.95    1.05
  -2  -2   9    6.15    0.86
  -2  -2   9    6.17    0.86
  -2  -2   9    8.36    1.31
  -2  -2   9    7.48    1.07
  -2  -2   9    7.09    0.68
   2   2  -9    7.55    1.22
   2   2  -9    5.99    0.86
   2   2  -9    8.60    1.45
   2   2  -9    7.19    0.68
   2   2  -9    7.30    1.27
  -4  -2  10    1.36    0.81
  -4  -2  10    0.59    0.62
  -4  -2  10    0.56    0.54
  -4  -2  10    0.63    0.53
   4   2 -10    0.17    0.66
   4   2 -10    0.50    0.63
   4   2 -10    0.58    0.62
   4   2 -10    0.77    0.52
   4   2 -10    0.33    0.58
  -6  -2  11    1.45    0.76
  -6  -2  11    0.41    0.59
  -6  -2  11    1.24    0.91
   6   2 -11    1.88    0.88
   6   2 -11    0.88    0.87
   6   2 -11    1.29    0.69
   6   2 -11    1.72    0.72
   7  -1   4    2.51    0.89
   7  -1   4    0.61    0.63
   7  -1   4    0.65    0.72
  -7   1  -4    0.11    0.66
  -7   1  -4    0.83    0.80
  -7   1  -4    0.49    0.61
   5  -1   5    0.33    0.49
   5  -1   5    0.37    0.57
   5  -1   5   -0.06    0.30
   5  -1   5    0.28    0.46
  -5   1  -5    0.31    0.48
  -5   1  -5   -0.05    0.51
  -5   1  -5    0.33    0.59
  -5   1  -5    1.70    0.70
   3  -1   6   13.96    1.42
   3  -1   6   12.90    1.13
   3  -1   6   12.19    1.26
   3  -1   6   13.88    0.93
  -3   1  -6   10.51    1.33
  -3   1  -6   13.28    1.29
  -3   1  -6   11.60    1.32
  -3   1  -6   13.10    0.90
  -3   1  -6   12.60    0.78
  -3   1  -6   13.01    1.28
   1  -1   7    3.81    0.69
   1  -1   7    4.23    0.67
   1  -1   7    3.05    0.81
   1  -1   7    4.81    0.99
  -1   1  -7    3.85    0.74
  -1   1  -7    4.48    0.75
  -1   1  -7    4.17    0.87
  -1   1  -7    4.35    0.89
  -1   1  -7    3.88    0.80
  -1  -1   8    3.69    0.89
  -1  -1   8    4.33    0.92
  -1  -1   8    4.90    0.91
  -1  -1   8    4.32    0.79
   1   1  -8    3.97    0.83
   1   1  -8    3.36    0.33
   1   1  -8    6.66    1.08
   1   1  -8    5.24    0.87
   1   1  -8    3.70    0.82
   1   1  -8    4.08    0.91
  -3  -1   9    3.08    0.70
  -3  -1   9    5.20    0.95
  -3  -1   9    4.11    0.68
  -3  -1   9    5.14    0.90
  -3  -1   9    3.25    0.80
   3   1  -9    1.94    0.66
   3   1  -9    2.88    0.62
   3   1  -9    2.35    0.73
   3   1  -9    2.46    0.80
   3   1  -9    3.64    0.81
  -5  -1  10    3.88    0.98
  -5  -1  10    2.76    0.82
  -5  -1  10    2.56    0.84
  -5  -1  10    2.57    0.88
   5   1 -10    3.65    1.01
   5   1 -10    4.14    1.22
   5   1 -10    3.42    0.84
   5   1 -10    3.62    0.99
  -7  -1  11   -1.12    0.66
  -7  -1  11    0.30    0.59
  -7  -1  11   -0.01    0.76
  -7  -1  11   -1.25    0.72
   7   1 -11    1.22    0.94
   7   1 -11   -0.02    0.99
   7   1 -11   -0.50    0.64
   7   1 -11   -0.84    0.72
   8   0   3    0.69    0.96
   8   0   3   -0.54    0.78
   8   0   3   -0.52    0.86
  -8   0  -3    0.02    0.66
  -8   0  -3   -0.65    0.99
  -8   0  -3   -0.75    0.81
   6   0   4    3.78    1.13
   6   0   4    4.80    1.11
   6   0   4    2.50    0.90
   6   0   4    3.29    0.93
  -6   0  -4    4.27    0.93
  -6   0  -4    3.95    1.15
  -6   0  -4    3.71    0.99
  -6   0  -4    3.40    1.27
   4   0   5    3.25    0.75
   4   0   5    3.39    0.91
   4   0   5    1.86    0.60
  -4   0  -5    1.95    0.84
  -4   0  -5    2.89    0.80
  -4   0  -5    2.13    0.69
  -4   0  -5    2.85    0.67
  -4   0  -5    2.29    0.79
   2   0   6    8.56    0.89
   2   0   6    8.28    0.64
   2   0   6    8.48    1.02
   2   0   6    8.05    1.01
   2   0   6    7.67    0.69
  -2   0  -6    7.71    0.95
  -2   0  -6    9.17    0.95
  -2   0  -6    8.84    1.02
  -2   0  -6    8.36    0.70
  -2   0  -6    7.95    0.63
  -2   0  -6    7.97    1.02
   0   0   7   12.21    1.24
   0   0   7   15.04    1.41
   0   0   7   12.13    1.04
   0   0   7   12.06    1.29
   0   0   7   11.92    1.08
   0   0  -7   11.49    1.19
   0   0  -7   12.10    1.10
   0   0  -7   11.96    1.17
   0   0  -7   13.70    1.14
   0   0  -7   12.61    0.68
   0   0  -7   13.45    1.22
  -2   0   8    4.69    0.84
  -2   0   8    4.95    0.94
  -2   0   8    4.05    0.85
  -2   0   8    4.38    0.89
  -2   0   8    4.05    0.49
  -2   0   8    3.86    0.91
   2   0  -8    5.40    1.11
   2   0  -8    4.72    0.94
   2   0  -8    4.60    0.86
   2   0  -8    3.90    0.77
   2   0  -8    7.31    1.17
   2   0  -8    4.66    0.51
  -4   0   9    7.71    1.01
  -4   0   9    9.31    1.67
  -4   0   9    7.46    1.11
  -4   0   9    7.55    1.28
   4   0  -9    8.36    1.35
   4   0  -9    7.62    1.41
   4   0  -9    7.95    1.09
   4   0  -9    8.67    1.42
   4   0  -9    7.90    0.95
  -6   0  10    2.03    0.69
  -6   0  10    2.51    0.89
  -6   0  10    2.68    0.85
  -6   0  10    0.49    0.66
   6   0 -10    1.65    0.86
   6   0 -10    0.64    0.61
   6   0 -10    0.92    0.61
   6   0 -10    0.90    0.69
   7   1   3    2.20    0.96
   7   1   3    2.70    0.91
   7   1   3    5.16    1.17
  -7  -1  -3    2.60    0.83
  -7  -1  -3    4.39    1.41
  -7  -1  -3    4.30    1.12
   5   1   4    5.74    1.13
   5   1   4    5.22    1.03
   5   1   4    5.36    1.07
   5   1   4    5.35    1.13
  -5  -1  -4    4.69    1.02
  -5  -1  -4    5.21    1.12
  -5  -1  -4    3.67    0.44
   3   1   5    8.71    1.09
   3   1   5    9.62    1.05
   3   1   5    8.49    0.90
   3   1   5    8.23    0.99
  -3  -1  -5    8.86    0.73
  -3  -1  -5   10.19    1.15
  -3  -1  -5    8.67    0.96
  -3  -1  -5    8.87    0.73
  -3  -1  -5    9.34    1.09
  -3  -1  -5    9.45    1.04
   1   1   6    4.99    0.84
   1   1   6    5.22    0.94
   1   1   6    5.84    0.84
   1   1   6    3.96    0.56
   1   1   6    5.52    1.05
   1   1   6    4.11    0.46
  -1  -1  -6    5.40    0.88
  -1  -1  -6    6.65    0.84
  -1  -1  -6    4.48    1.07
  -1  -1  -6    5.47    0.97
  -1  -1  -6    4.20    0.44
  -1  -1  -6    4.75    0.58
  -1   1   7    0.73    0.41
  -1   1   7    0.64    0.48
  -1   1   7    0.97    0.43
  -1   1   7    0.69    0.43
  -1   1   7    0.08    0.36
  -1   1   7    0.41    0.36
   1  -1  -7    0.80    0.26
   1  -1  -7    0.76    0.49
   1  -1  -7    0.61    0.34
   1  -1  -7    0.80    0.26
   1  -1  -7    0.29    0.43
   1  -1  -7    1.06    0.48
   1  -1  -7    0.83    0.44
  -3   1   8   13.66    1.36
  -3   1   8   12.31    1.08
  -3   1   8   13.61    1.31
  -3   1   8   13.75    1.21
  -3   1   8   13.95    1.25
  -3   1   8   12.64    1.12
   3  -1  -8   15.34    1.38
   3  -1  -8   11.09    1.24
   3  -1  -8   12.61    1.25
   3  -1  -8   12.31    1.07
   3  -1  -8   13.22    1.31
  -5   1   9    1.88    0.67
  -5   1   9    0.91    0.57
  -5   1   9    0.36    0.38
  -5   1   9    0.87    0.53
   5  -1  -9    0.97    0.75
   5  -1  -9    0.35    0.63
   5  -1  -9    0.52    0.51
   5  -1  -9    0.39    0.49
  -7   1  10    2.26    0.90
  -7   1  10    2.82    1.04
  -7   1  10    0.79    0.77
  -7   1  10    2.39    0.81
   7  -1 -10    4.03    0.97
   7  -1 -10    3.30    1.04
   7  -1 -10    2.94    0.92
   7  -1 -10    1.55    1.05
   6   2   3    1.82    0.91
   6   2   3    0.60    0.77
   6   2   3    0.41    0.61
   6   2   3    0.10    0.44
  -6  -2  -3   -0.90    0.66
  -6  -2  -3    1.02    0.68
  -6  -2  -3    0.27    0.55
  -6  -2  -3    1.58    0.96
   4   2   4    7.48    1.04
   4   2   4    7.27    1.05
   4   2   4    8.79    1.32
   4   2   4    7.27    1.02
  -4  -2  -4    7.30    0.75
  -4  -2  -4    7.32    0.79
  -4  -2  -4    8.98    1.54
  -4  -2  -4    7.92    1.31
   2   2   5    0.72    0.31
   2   2   5    0.29    0.48
   2   2   5    0.71    0.52
   2   2   5    0.58    0.40
   2   2   5    0.66    0.49
  -2  -2  -5   -0.53    0.47
  -2  -2  -5    0.03    0.38
  -2  -2  -5    0.32    0.35
  -2  -2  -5    0.18    0.36
  -2  -2  -5    0.36    0.30
  -2  -2  -5    0.87    0.41
   0   2   6   16.86    1.39
   0   2   6   17.61    1.46
   0   2   6   16.11    1.46
   0   2   6   15.92    1.15
   0   2   6   16.43    1.40
   0   2   6   14.32    1.23
   0   2   6   16.62    1.30
   0  -2  -6   17.45    1.49
   0  -2  -6   16.67    1.15
   0  -2  -6   16.73    1.14
   0  -2  -6   17.56    1.32
   0  -2  -6   16.85    1.34
   0  -2  -6   17.02    1.44
   0  -2  -6   15.74    1.33
  -2   2   7    6.15    0.71
  -2   2   7    7.20    0.95
  -2   2   7    7.80    0.97
  -2   2   7    6.88    0.86
  -2   2   7   10.21    1.13
   2  -2  -7    7.47    0.91
   2  -2  -7    7.32    0.73
   2  -2  -7    8.17    0.75
   2  -2  -7    6.07    0.67
   2  -2  -7    5.82    0.79
   2  -2  -7    6.28    0.79
   2  -2  -7    5.92    0.80
  -4   2   8   10.88    0.97
  -4   2   8   10.82    1.33
  -4   2   8    8.66    0.91
  -4   2   8    9.42    1.10
   4  -2  -8   10.60    1.20
   4  -2  -8   11.14    1.12
   4  -2  -8   10.50    1.03
   4  -2  -8   10.02    1.16
  -6   2   9    0.05    0.55
  -6   2   9   -0.58    0.55
  -6   2   9   -0.66    0.65
  -6   2   9   -0.47    0.40
   6  -2  -9   -0.10    0.38
   6  -2  -9   -0.08    0.47
   6  -2  -9    0.08    0.49
   6  -2  -9    0.41    0.69
  -8   2  10    2.59    1.06
  -8   2  10   -1.43    0.74
  -8   2  10   -1.30    0.93
  -8   2  10    0.61    0.82
   8  -2 -10   -1.13    0.49
   8  -2 -10    0.33    0.84
   8  -2 -10    0.21    1.05
   8  -2 -10   -0.61    0.86
   7   3   2   -0.02    0.81
   7   3   2   -0.11    0.91
   7   3   2    0.47    1.12
   7   3   2    0.66    0.84
  -7  -3  -2    0.26    1.00
  -7  -3  -2    0.71    0.83
  -7  -3  -2   -0.03    0.76
   5   3   3    0.73    0.52
   5   3   3   -0.35    0.58
   5   3   3   -0.16    0.50
  -5  -3  -3   -0.73    0.41
  -5  -3  -3    0.76    0.65
  -5  -3  -3   -0.11    0.51
  -5  -3  -3    0.03    0.72
   3   3   4   18.03    1.60
   3   3   4   16.70    1.49
   3   3   4   15.95    1.46
   3   3   4   16.47    1.40
  -3  -3  -4   17.01    1.37
  -3  -3  -4   16.98    1.64
  -3  -3  -4   18.05    1.64
  -3  -3  -4   16.43    1.59
  -3  -3  -4   15.30    1.32
   1   3   5    1.12    0.47
   1   3   5    1.06    0.44
   1   3   5    1.62    0.58
   1   3   5    0.38    0.56
   1   3   5    0.23    0.47
   1   3   5    1.78    0.61
  -1  -3  -5    1.63    0.56
  -1  -3  -5    1.04    0.54
  -1  -3  -5    0.65    0.38
  -1  -3  -5    0.40    0.44
  -1  -3  -5    1.40    0.56
  -1  -3  -5    0.34    0.45
  -1  -3  -5    1.19    0.50
  -1   3   6    9.00    1.01
  -1   3   6    7.93    0.76
  -1   3   6    8.23    0.79
  -1   3   6    7.14    0.88
  -1   3   6    7.03    0.98
  -1   3   6    7.69    0.88
   1  -3  -6    8.14    0.79
   1  -3  -6    9.86    0.99
   1  -3  -6    7.36    0.90
   1  -3  -6    7.02    0.77
   1  -3  -6    8.19    0.90
   1  -3  -6    7.65    0.90
   1  -3  -6    7.54    0.77
  -3   3   7    9.49    1.17
  -3   3   7    6.90    0.65
  -3   3   7    8.11    0.98
  -3   3   7    5.71    0.60
  -3   3   7    7.24    1.39
   3  -3  -7    5.26    1.00
   3  -3  -7    6.97    0.82
   3  -3  -7    6.35    1.03
   3  -3  -7    9.15    0.97
   3  -3  -7    8.08    1.03
  -5   3   8    4.77    1.06
  -5   3   8    3.93    0.58
  -5   3   8    4.25    1.09
  -5   3   8    5.43    0.60
  -5   3   8    3.20    1.02
   5  -3  -8    4.03    0.89
   5  -3  -8    7.27    1.17
   5  -3  -8    5.19    0.75
   5  -3  -8    4.06    0.99
  -7   3   9    1.08    0.82
  -7   3   9    0.29    0.76
  -7   3   9   -0.46    0.83
  -7   3   9   -0.65    0.59
   7  -3  -9    0.02    0.62
   7  -3  -9    0.42    0.73
   7  -3  -9    0.29    0.70
   7  -3  -9   -0.51    0.44
   6   4   2    0.29    0.66
   6   4   2    0.68    0.73
   6   4   2   -0.28    0.87
   6   4   2    0.81    0.76
  -6  -4  -2    1.73    1.12
  -6  -4  -2    0.07    0.72
  -6  -4  -2   -0.28    0.60
  -6  -4  -2    0.47    0.83
   4   4   3    4.52    1.10
   4   4   3    4.13    1.07
   4   4   3    4.15    0.87
   4   4   3    5.34    0.95
  -4  -4  -3    4.63    1.14
  -4  -4  -3    4.45    1.15
  -4  -4  -3    4.71    0.94
   2   4   4    7.46    1.97
   2   4   4    7.47    1.27
   2   4   4    5.82    1.06
   2   4   4    6.06    1.14
   2   4   4    6.12    1.07
  -2  -4  -4    7.20    1.00
  -2  -4  -4    6.80    0.90
  -2  -4  -4    7.53    1.25
  -2  -4  -4    5.56    1.15
   0   4   5    0.20    0.46
   0   4   5    0.22    0.46
   0   4   5    0.38    0.38
   0   4   5    0.51    0.41
   0   4   5    0.04    0.43
   0   4   5    1.17    0.56
   0  -4  -5    0.23    0.38
   0  -4  -5   -0.09    0.33
   0  -4  -5    0.54    0.43
   0  -4  -5    0.41    0.36
   0  -4  -5    0.64    0.44
  -2   4   6    0.68    0.50
  -2   4   6    0.53    0.29
  -2   4   6    0.88    0.50
  -2   4   6    0.25    0.45
  -2   4   6    0.99    0.56
   2  -4  -6    0.75    0.40
   2  -4  -6    1.87    0.53
   2  -4  -6    0.90    0.52
   2  -4  -6    0.57    0.55
   2  -4  -6    0.45    0.23
  -4   4   7    3.12    0.88
  -4   4   7    4.00    1.03
  -4   4   7    2.99    0.31
  -4   4   7    4.18    1.00
  -4   4   7    4.33    1.10
   4  -4  -7    4.51    1.08
   4  -4  -7    5.19    1.02
   4  -4  -7    5.28    1.01
   4  -4  -7    4.97    1.21
  -6   4   8   12.04    1.36
  -6   4   8   10.26    0.85
  -6   4   8   13.85    1.58
  -6   4   8   12.33    0.90
  -6   4   8   10.10    1.34
   6  -4  -8   14.73    1.59
   6  -4  -8   13.13    1.39
   6  -4  -8   12.45    1.44
   6  -4  -8   12.51    1.28
  -8   4   9    0.54    0.91
  -8   4   9    0.28    1.13
  -8   4   9    1.62    0.95
   8  -4  -9    0.60    0.88
   8  -4  -9    1.21    0.68
   8  -4  -9    2.81    1.28
   5   5   2    1.22    0.61
   5   5   2   -0.13    1.27
   5   5   2    2.13    0.98
   5   5   2    1.40    0.88
  -5  -5  -2    1.30    0.78
  -5  -5  -2   -1.00    0.79
  -5  -5  -2    1.10    0.75
  -5  -5  -2    1.76    0.90
   3   5   3   11.41    1.36
   3   5   3   10.27    1.20
   3   5   3    9.66    1.03
   3   5   3    6.58    1.02
  -3  -5  -3    9.91    1.62
  -3  -5  -3    8.17    1.11
  -3  -5  -3    9.25    1.11
  -3  -5  -3    9.75    1.33
   1   5   4    8.87    1.00
   1   5   4    8.19    1.06
   1   5   4    7.83    1.06
   1   5   4   10.76    1.29
   1   5   4    8.81    1.10
  -1  -5  -4    8.74    1.07
  -1  -5  -4    7.81    1.04
  -1  -5  -4    8.97    1.19
  -1  -5  -4    8.23    1.00
  -1   5   5    5.75    1.01
  -1   5   5    7.93    1.34
  -1   5   5    4.03    0.90
  -1   5   5    5.02    0.78
  -1   5   5    4.53    0.97
  -1   5   5    3.78    0.89
   1  -5  -5    4.53    0.98
   1  -5  -5    5.07    0.79
   1  -5  -5    5.11    0.97
   1  -5  -5    4.32    0.99
   1  -5  -5    4.23    0.85
  -3   5   6   13.61    1.34
  -3   5   6   12.15    1.26
  -3   5   6   14.77    1.48
   3  -5  -6   10.81    1.18
   3  -5  -6    9.48    1.11
   3  -5  -6   11.40    1.31
  -5   5   7    0.71    0.78
  -5   5   7    0.98    0.64
  -5   5   7    1.06    0.84
  -5   5   7    0.95    0.54
   5  -5  -7    2.04    0.87
   5  -5  -7    1.19    0.62
   5  -5  -7    1.07    0.65
   5  -5  -7    1.62    0.74
  -7   5   8    0.23    0.73
  -7   5   8    0.20    0.65
  -7   5   8    0.41    0.60
   7  -5  -8    0.14    0.59
   7  -5  -8    0.81    0.77
   7  -5  -8    0.18    0.57
   7  -5  -8    0.13    0.46
   4   6   2    0.82    0.84
   4   6   2    0.65    0.56
   4   6   2   -0.05    0.58
   4   6   2    0.84    0.55
  -4  -6  -2   -0.04    0.70
  -4  -6  -2   -0.32    0.79
  -4  -6  -2    0.17    0.53
   2   6   3    6.60    1.05
   2   6   3    6.66    1.41
   2   6   3    6.94    1.15
   2   6   3    6.63    1.35
   2   6   3    7.84    1.40
  -2  -6  -3    6.79    1.25
  -2  -6  -3    8.37    1.50
  -2  -6  -3    7.67    1.36
   0   6   4   12.20    1.25
   0   6   4   14.89    1.44
   0   6   4   11.01    1.24
   0   6   4   13.46    1.28
   0   6   4   12.70    1.30
   0   6   4   15.26    1.39
   0  -6  -4   14.19    1.43
   0  -6  -4   13.95    1.46
   0  -6  -4   11.88    1.22
   0  -6  -4   12.89    1.22
  -2   6   5    5.44    1.03
  -2   6   5    4.86    0.97
  -2   6   5    3.85    0.46
  -2   6   5    5.49    1.04
  -2   6   5    3.62    0.90
  -2   6   5    5.23    1.05
   2  -6  -5    6.85    1.19
   2  -6  -5    3.45    0.77
   2  -6  -5    3.96    0.46
   2  -6  -5    5.85    1.08
   2  -6  -5    3.58    0.83
  -4   6   6   -0.51    0.62
  -4   6   6   -0.57    0.54
  -4   6   6    0.33    0.50
  -4   6   6    1.66    0.75
   4  -6  -6    0.78    0.60
   4  -6  -6    0.78    0.63
   4  -6  -6    0.80    0.54
   4  -6  -6    1.50    0.83
  -6   6   7    2.53    1.06
  -6   6   7   -0.68    0.98
  -6   6   7   -0.15    0.51
  -6   6   7   -0.67    0.65
   6  -6  -7    0.60    0.55
   6  -6  -7   -0.63    0.68
   6  -6  -7   -0.94    0.61
  -8   6   8    0.72    0.85
  -8   6   8    0.68    0.94
  -8   6   8    0.75    1.09
   8  -6  -8    0.02    0.85
   8  -6  -8    2.14    0.88
   3   7   2    6.60    0.81
   3   7   2    6.22    0.83
   3   7   2    6.14    1.45
   3   7   2    9.06    1.56
  -3  -7  -2    9.31    1.81
  -3  -7  -2    4.38    1.23
  -3  -7  -2    8.51    1.53
   1   7   3    3.56    1.10
   1   7   3    3.95    0.82
   1   7   3    4.02    0.96
   1   7   3    3.64    1.24
   1   7   3    2.56    0.96
  -1  -7  -3    3.46    0.98
  -1  -7  -3    3.35    0.87
  -1  -7  -3    2.77    0.84
  -1  -7  -3    3.94    0.96
  -1   7   4    2.86    0.62
  -1   7   4    2.72    0.82
  -1   7   4    5.30    1.10
  -1   7   4    5.64    1.23
  -1   7   4    2.32    1.15
  -1   7   4    3.31    0.79
   1  -7  -4    2.83    0.66
   1  -7  -4    1.92    0.77
   1  -7  -4    2.67    0.80
   1  -7  -4    2.25    0.79
  -3   7   5   -0.31    0.54
  -3   7   5    0.35    0.44
  -3   7   5   -0.05    0.36
  -3   7   5    1.00    0.66
   3  -7  -5    1.37    0.69
   3  -7  -5    0.10    0.61
   3  -7  -5    0.35    0.45
   3  -7  -5    0.36    0.51
  -5   7   6    1.33    0.70
  -5   7   6    1.98    0.95
  -5   7   6    1.13    0.79
  -5   7   6    0.99    0.66
   5  -7  -6    1.33    0.77
   5  -7  -6    1.71    0.66
   5  -7  -6    2.12    0.77
   5  -7  -6    1.89    0.96
  -7   7   7   -1.06    0.51
  -7   7   7    0.07    0.58
  -7   7   7   -0.61    0.64
   7  -7  -7   -0.71    0.42
   7  -7  -7    1.11    0.74
   7  -7  -7   -0.15    0.87
   2   8   2   -0.44    0.79
   2   8   2   -0.12    0.50
   2   8   2    0.49    0.48
   2   8   2   -0.42    0.63
  -2  -8  -2    0.39    0.86
  -2  -8  -2    0.33    0.71
  -2  -8  -2   -0.37    0.59
   0   8   3    1.46    0.71
   0   8   3    0.53    0.62
   0   8   3    0.51    0.55
   0   8   3   -0.15    0.69
   0   8   3    1.82    0.67
   0  -8  -3    0.37    0.65
   0  -8  -3    1.15    0.62
   0  -8  -3    0.26    0.57
   0  -8  -3    0.80    0.68
  -2   8   4    2.80    0.92
  -2   8   4    0.42    0.69
  -2   8   4    1.74    0.52
  -2   8   4    0.91    0.66
  -2   8   4    1.20    0.74
  -2   8   4    1.88    0.98
   2  -8  -4    0.44    0.73
   2  -8  -4    1.05    0.42
   2  -8  -4    1.85    1.05
   2  -8  -4    1.16    0.56
   2  -8  -4    1.94    0.96
  -4   8   5    0.04    0.77
  -4   8   5    1.41    0.78
  -4   8   5    1.42    0.67
   4  -8  -5    0.20    0.78
   4  -8  -5    1.86    0.84
   4  -8  -5    0.66    0.56
   4  -8  -5    1.25    0.68
  -6   8   6    2.39    1.18
  -6   8   6    3.86    0.97
  -6   8   6    5.05    1.36
   6  -8  -6    4.33    0.95
   6  -8  -6    4.00    1.24
   6  -8  -6    6.25    1.59
  -8   8   7    3.37    1.36
  -8   8   7   -0.58    0.87
   8  -8  -7   -0.60    0.94
   8  -8  -7    0.94    1.39
   1   9   2   -0.33    0.74
   1   9   2   -0.90    0.51
   1   9   2    1.17    0.89
   1   9   2    0.23    0.49
  -1  -9  -2    1.58    0.84
  -1  -9  -2    2.03    1.06
  -1   9   3    0.03    0.62
  -1   9   3    0.36    0.71
  -1   9   3    0.80    0.68
  -1   9   3   -0.39    0.56
   1  -9  -3   -0.67    0.61
   1  -9  -3    1.16    0.61
   1  -9  -3    0.30    0.83
  -3   9   4    3.68    1.09
  -3   9   4    4.60    1.05
  -3   9   4    3.25    1.02
  -3   9   4    4.18    1.21
   3  -9  -4    4.39    1.24
   3  -9  -4    4.42    1.19
  -5   9   5    2.15    0.76
  -5   9   5    1.87    0.79
  -5   9   5    2.36    0.95
   5  -9  -5    1.48    0.83
   5  -9  -5    2.25    0.84
   5  -9  -5    1.38    0.72
  -7   9   6    6.91    1.83
  -7   9   6    3.10    1.10
  -7   9   6    3.22    0.94
   7  -9  -6    4.31    1.38
   7  -9  -6    2.75    0.81
   7  -9  -6    3.65    1.38
   0  10   2    1.35    0.91
   0  10   2    1.15    0.76
   0  10   2    0.97    0.90
   0  10   2    0.59    0.70
   0 -10  -2    2.15    0.92
   0 -10  -2    5.15    1.18
   0 -10  -2    1.12    0.93
  -2  10   3    1.58    0.81
  -2  10   3    0.59    0.78
  -2  10   3    1.43    0.80
  -2  10   3    1.79    0.82
   2 -10  -3    0.37    0.71
   2 -10  -3    0.52    0.57
   2 -10  -3    1.21    1.13
  -4  10   4    2.09    0.91
  -4  10   4    2.57    1.06
  -4  10   4    1.61    0.81
   4 -10  -4    1.97    1.11
   4 -10  -4    2.81    0.97
   4 -10  -4    1.79    0.95
  -6  10   5    5.02    1.27
  -6  10   5    1.35    1.00
   6 -10  -5    2.18    0.85
   6 -10  -5    3.17    1.22
  -1  11   2    1.50    0.84
  -1  11   2   -0.66    0.91
  -1  11   2   -0.43    0.66
  -1  11   2    0.02    0.96
   1 -11  -2   -1.25    1.22
   1 -11  -2    0.84    0.89
   1 -11  -2   -0.33    0.78
  -3  11   3   -0.08    0.67
  -3  11   3    0.72    0.78
   3 -11  -3    0.06    0.67
  -5  11   4    0.70    0.76
  -5  11   4    1.07    1.06
  -5  11   4    0.35    0.80
   5 -11  -4    1.32    1.05
   5 -11  -4    0.54    0.86
   5 -11  -4    1.75    0.80
   3  -8  10   -0.15    1.06
   3  -8  10    1.24    0.94
  -3   8 -10   -0.70    0.63
  -3   8 -10    0.35    0.91
  -3   8 -10   -0.75    0.77
  -3   8 -10   -0.21    0.85
  -3   8 -10    0.05    0.71
   1  -8  11    1.00    0.90
   1  -8  11   -0.49    0.72
   1  -8  11    1.31    1.06
  -1   8 -11    0.65    0.74
  -1   8 -11    0.81    0.66
   6  -7   8    0.16    0.99
   6  -7   8    0.49    0.98
  -6   7  -8    1.04    0.80
  -6   7  -8    2.16    1.06
  -6   7  -8   -0.39    0.84
   4  -7   9    2.48    1.04
   4  -7   9    0.98    1.04
  -4   7  -9    1.26    0.80
  -4   7  -9    2.62    0.79
  -4   7  -9    3.42    0.85
  -4   7  -9    2.43    0.96
   2  -7  10    0.61    0.68
   2  -7  10   -0.26    0.79
   2  -7  10    0.59    0.29
  -2   7 -10    0.18    0.53
  -2   7 -10    0.04    0.67
  -2   7 -10   -0.03    0.52
  -2   7 -10   -0.14    0.53
  -2   7 -10    0.21    0.78
   0  -7  11   -0.42    0.50
   0  -7  11    0.68    0.71
   0  -7  11    1.89    0.84
   0   7 -11    1.07    0.78
   0   7 -11    0.27    0.57
   0   7 -11    0.53    0.76
   0   7 -11    0.41    0.48
   7  -6   7   -0.90    0.90
   7  -6   7    1.18    0.65
   7  -6   7    0.29    1.01
  -7   6  -7   -0.48    0.87
  -7   6  -7    1.08    0.87
   5  -6   8   -0.79    0.40
   5  -6   8   -1.49    0.74
  -5   6  -8   -0.76    0.72
  -5   6  -8    0.98    0.61
  -5   6  -8   -0.41    0.52
  -5   6  -8    0.39    0.73
   3  -6   9    0.80    0.63
   3  -6   9    0.79    0.67
  -3   6  -9    0.99    0.60
  -3   6  -9    1.00    0.87
  -3   6  -9    0.14    0.47
  -3   6  -9    0.06    0.63
   1  -6  10   -0.18    0.74
   1  -6  10   -0.44    0.59
   1  -6  10    0.11    0.58
  -1   6 -10    1.42    0.78
  -1   6 -10    0.08    0.45
  -1   6 -10   -0.03    0.56
  -1   6 -10    0.21    0.53
  -1   6 -10    0.22    0.47
  -1  -6  11    1.60    0.92
  -1  -6  11    0.85    0.92
  -1  -6  11    2.29    0.84
   1   6 -11    1.03    0.63
   1   6 -11    0.96    0.59
   1   6 -11    1.84    0.79
   1   6 -11    1.17    0.84
   1   6 -11    2.97    0.98
  -3  -6  12    0.45    0.99
  -3  -6  12   -0.30    0.60
  -3  -6  12   -0.52    0.71
   3   6 -12    0.33    0.85
   3   6 -12   -0.50    0.78
   3   6 -12   -0.02    0.65
   3   6 -12   -0.55    0.54
   6  -5   7    0.24    0.81
   6  -5   7    0.12    0.85
   6  -5   7    0.32    0.47
  -6   5  -7   -0.04    0.50
  -6   5  -7    0.51    0.66
  -6   5  -7   -1.26    0.51
   4  -5   8    4.22    1.20
   4  -5   8    2.63    0.46
   4  -5   8    2.10    0.44
   4  -5   8    3.84    1.09
   4  -5   8    2.59    0.45
   4  -5   8    3.39    0.46
  -4   5  -8    3.60    1.08
  -4   5  -8    2.13    0.73
  -4   5  -8    3.19    0.85
  -4   5  -8    3.33    0.89
   2  -5   9   -0.24    0.57
   2  -5   9   -0.41    0.60
  -2   5  -9    0.07    0.40
  -2   5  -9   -0.56    0.63
  -2   5  -9    0.29    0.40
  -2   5  -9   -0.76    0.40
  -2   5  -9   -0.04    0.43
   0  -5  10    7.44    1.33
   0  -5  10    5.93    0.56
   0  -5  10    7.86    1.54
   0  -5  10    6.42    1.34
   0   5 -10    6.64    1.09
   0   5 -10    6.93    1.48
   0   5 -10    4.97    0.97
   0   5 -10    5.92    1.29
   0   5 -10    6.38    1.38
  -2  -5  11   -0.45    0.53
  -2  -5  11   -0.34    0.53
  -2  -5  11    1.49    0.83
   2   5 -11   -0.40    0.60
   2   5 -11   -0.65    0.45
   2   5 -11    0.97    0.85
  -4  -5  12    1.42    0.84
  -4  -5  12   -0.94    0.66
   4   5 -12    0.78    0.83
   4   5 -12    0.19    0.77
   4   5 -12   -0.69    0.72
   7  -4   6    0.41    0.52
   7  -4   6    0.76    0.75
   7  -4   6    0.25    0.64
  -7   4  -6   -1.03    0.65
  -7   4  -6    0.40    0.68
  -7   4  -6    1.05    1.10
   5  -4   7    1.67    0.92
   5  -4   7    2.02    0.91
   5  -4   7    2.15    0.57
  -5   4  -7    2.15    0.85
  -5   4  -7    2.15    0.85
  -5   4  -7    1.00    0.72
  -5   4  -7    1.49    0.77
   3  -4   8   17.41    1.69
   3  -4   8   17.42    1.80
   3  -4   8   17.99    1.23
  -3   4  -8   16.08    1.21
  -3   4  -8   16.11    1.46
  -3   4  -8   16.92    1.65
  -3   4  -8   17.92    1.80
  -3   4  -8   17.56    1.41
   1  -4   9    0.56    0.54
   1  -4   9    0.35    0.56
  -1   4  -9    0.21    0.40
  -1   4  -9    1.41    0.61
  -1   4  -9   -0.45    0.48
  -1   4  -9    0.70    0.46
  -1   4  -9    0.76    0.38
  -1  -4  10    0.59    0.85
  -1  -4  10    0.64    0.59
  -1  -4  10    0.40    0.29
  -1  -4  10    0.64    0.54
  -1  -4  10    1.24    0.66
   1   4 -10    0.26    0.53
   1   4 -10    0.71    0.67
   1   4 -10    0.24    0.26
   1   4 -10    0.49    0.77
  -3  -4  11    1.81    1.01
  -3  -4  11    4.78    1.03
  -3  -4  11    2.43    0.96
   3   4 -11    3.18    0.94
   3   4 -11    2.83    0.77
   3   4 -11    2.92    1.05
   3   4 -11    3.54    1.11
   3   4 -11    2.68    1.07
  -5  -4  12   -0.29    0.73
  -5  -4  12   -0.43    1.17
  -5  -4  12    0.67    0.85
   5   4 -12    2.03    1.17
   5   4 -12    0.59    0.86
   5   4 -12    1.38    0.99
   5   4 -12    2.12    0.97
   6  -3   6    0.33    0.51
   6  -3   6    1.48    0.77
   6  -3   6    0.10    0.51
   6  -3   6   -0.01    0.59
  -6   3  -6   -0.80    0.70
  -6   3  -6    0.20    0.58
  -6   3  -6    0.30    0.77
  -6   3  -6    0.04    0.46
   4  -3   7    0.30    0.57
   4  -3   7   -0.12    0.27
   4  -3   7    1.06    0.78
   4  -3   7   -0.34    0.24
  -4   3  -7   -0.37    0.39
  -4   3  -7    0.04    0.29
  -4   3  -7    0.46    0.53
  -4   3  -7    0.76    0.54
   2  -3   8    0.38    0.52
   2  -3   8    0.12    0.60
   2  -3   8    1.28    0.45
   2  -3   8    0.23    0.45
  -2   3  -8    0.68    0.52
  -2   3  -8    0.74    0.39
  -2   3  -8    1.06    0.68
  -2   3  -8    0.96    0.49
  -2   3  -8    0.91    0.43
   0  -3   9    5.21    1.08
   0  -3   9    4.56    1.12
   0  -3   9    4.95    0.76
   0   3  -9    5.64    1.08
   0   3  -9    5.74    1.19
   0   3  -9    5.63    1.02
   0   3  -9    4.45    1.08
  -2  -3  10    8.92    1.59
  -2  -3  10    4.77    0.75
  -2  -3  10    8.60    1.43
  -2  -3  10    5.33    0.88
  -2  -3  10    6.90    1.34
   2   3 -10    5.05    0.65
   2   3 -10    6.22    1.18
   2   3 -10    8.56    1.49
   2   3 -10    8.45    1.51
   2   3 -10    5.21    1.21
  -4  -3  11    5.33    1.09
  -4  -3  11    6.14    1.33
  -4  -3  11    6.20    1.29
   4   3 -11    5.37    0.97
   4   3 -11    7.02    1.40
   4   3 -11    6.52    1.54
   4   3 -11    5.94    1.48
   7  -2   5    0.09    0.57
   7  -2   5   -0.61    0.72
   7  -2   5    1.59    0.77
  -7   2  -5   -0.01    1.04
  -7   2  -5    1.35    0.87
  -7   2  -5   -0.38    0.62
   5  -2   6    0.71    0.44
   5  -2   6   -0.18    0.52
   5  -2   6    0.39    0.50
  -5   2  -6    0.00    0.45
  -5   2  -6    0.05    0.75
  -5   2  -6    0.40    0.63
  -5   2  -6    0.55    0.58
  -5   2  -6    0.33    0.50
   3  -2   7    2.77    0.37
   3  -2   7    4.06    0.73
   3  -2   7    4.02    0.35
   3  -2   7    4.54    1.08
   3  -2   7    2.84    0.79
  -3   2  -7    3.58    0.90
  -3   2  -7    5.35    1.04
  -3   2  -7    4.30    0.88
  -3   2  -7    6.51    1.32
   1  -2   8    1.99    0.53
   1  -2   8    1.57    0.49
   1  -2   8    0.48    0.60
   1  -2   8    1.84    0.56
  -1   2  -8    0.82    0.42
  -1   2  -8    1.28    0.43
  -1   2  -8    1.62    0.64
  -1   2  -8    0.61    0.45
  -1   2  -8    1.12    0.47
  -1  -2   9   13.86    1.47
  -1  -2   9   13.76    0.89
  -1  -2   9   15.24    1.45
  -1  -2   9   18.28    1.62
  -1  -2   9   14.38    1.25
   1   2  -9   15.28    1.36
   1   2  -9   16.23    1.51
   1   2  -9   14.09    1.43
   1   2  -9   15.82    1.46
   1   2  -9   16.63    1.46
   1   2  -9   13.85    0.86
  -3  -2  10    4.40    0.77
  -3  -2  10    5.05    1.05
  -3  -2  10    4.59    0.94
  -3  -2  10    4.67    1.06
   3   2 -10    4.27    1.03
   3   2 -10    5.04    0.68
   3   2 -10    5.27    1.22
   3   2 -10    3.50    0.94
   3   2 -10    5.83    1.24
  -5  -2  11    5.57    1.10
  -5  -2  11    4.64    1.22
  -5  -2  11    4.60    1.07
   5   2 -11    4.75    1.27
   5   2 -11    5.59    1.12
   5   2 -11    5.71    1.34
   5   2 -11    4.29    1.16
   6  -1   5    0.11    0.67
   6  -1   5   -0.10    0.68
   6  -1   5   -0.08    0.53
   6  -1   5    0.10    0.45
  -6   1  -5    0.32    0.58
  -6   1  -5    1.21    0.90
  -6   1  -5    0.91    0.91
   4  -1   6    5.13    1.16
   4  -1   6    7.21    1.34
   4  -1   6    4.57    0.61
   4  -1   6    5.48    0.90
  -4   1  -6    4.42    1.05
  -4   1  -6    6.40    1.33
  -4   1  -6    5.44    1.14
  -4   1  -6    4.63    0.75
  -4   1  -6    4.89    0.98
   2  -1   7    3.91    0.61
   2  -1   7    3.74    0.89
   2  -1   7    2.18    0.74
   2  -1   7    4.10    0.75
  -2   1  -7    3.41    0.97
  -2   1  -7    3.60    0.60
  -2   1  -7    3.11    0.78
  -2   1  -7    3.80    0.82
   0  -1   8    0.02    0.39
   0  -1   8    0.15    0.38
   0  -1   8   -0.36    0.28
   0  -1   8    0.17    0.44
   0   1  -8    0.08    0.40
   0   1  -8    0.45    0.55
   0   1  -8    0.97    0.45
   0   1  -8    0.18    0.32
   0   1  -8    0.31    0.37
  -2  -1   9    0.33    0.41
  -2  -1   9    0.73    0.63
  -2  -1   9    0.28    0.52
  -2  -1   9    0.15    0.31
  -2  -1   9    0.01    0.24
   2   1  -9    0.11    0.26
   2   1  -9   -0.33    0.37
   2   1  -9   -0.06    0.50
   2   1  -9    0.49    0.52
   2   1  -9    0.24    0.43
   2   1  -9    0.14    0.31
  -4  -1  10   -0.18    0.48
  -4  -1  10    0.14    0.63
  -4  -1  10   -0.11    0.50
  -4  -1  10    0.29    0.56
   4   1 -10    1.31    0.75
   4   1 -10    0.46    0.72
   4   1 -10    0.22    0.36
   4   1 -10   -0.12    0.57
   4   1 -10   -0.63    0.50
  -6  -1  11   -0.42    0.66
  -6  -1  11    0.07    0.69
  -6  -1  11    0.08    0.75
   6   1 -11    0.45    0.71
   6   1 -11    1.64    0.79
   6   1 -11    0.71    0.70
   6   1 -11   -0.06    0.63
   7   0   4    4.39    1.09
   7   0   4    3.35    1.09
   7   0   4    3.02    1.09
  -7   0  -4    4.53    1.36
  -7   0  -4    3.20    0.94
  -7   0  -4    6.19    1.49
   5   0   5    0.55    0.53
   5   0   5    0.53    0.41
   5   0   5    0.86    0.62
   5   0   5    0.34    0.58
  -5   0  -5   -0.02    0.54
  -5   0  -5    0.11    0.42
  -5   0  -5    0.42    0.57
   3   0   6    1.63    0.67
   3   0   6    1.92    0.59
   3   0   6    1.77    0.81
   3   0   6    1.74    0.42
  -3   0  -6    0.95    0.30
  -3   0  -6    1.93    0.68
  -3   0  -6    1.30    0.42
  -3   0  -6    0.82    0.57
  -3   0  -6    1.32    0.31
  -3   0  -6    0.83    0.55
  -3   0  -6    1.52    0.49
   1   0   7    2.54    0.53
   1   0   7    2.90    0.75
   1   0   7    2.65    0.61
   1   0   7    2.63    0.75
  -1   0  -7    2.22    0.70
  -1   0  -7    3.07    0.68
  -1   0  -7    2.41    0.71
  -1   0  -7    1.94    0.16
  -1   0  -7    1.60    0.67
  -1   0   8    0.47    0.37
  -1   0   8    0.77    0.54
   1   0  -8    0.77    0.41
   1   0  -8    0.62    0.48
   1   0  -8    0.51    0.45
   1   0  -8    0.95    0.41
   1   0  -8    0.55    0.42
  -3   0   9   21.46    1.79
  -3   0   9   20.82    1.47
  -3   0   9   20.55    1.68
  -3   0   9   20.28    1.82
  -3   0   9   19.39    1.65
   3   0  -9   19.86    1.76
   3   0  -9   23.99    1.87
   3   0  -9   19.80    1.79
   3   0  -9   20.62    1.49
   3   0  -9   17.26    1.64
  -5   0  10    2.96    0.80
  -5   0  10    1.60    0.77
  -5   0  10    2.89    0.92
  -5   0  10    1.48    0.67
   5   0 -10    1.93    0.70
   5   0 -10    1.67    0.81
   5   0 -10    1.18    0.60
   5   0 -10    2.07    0.66
  -7   0  11    0.18    0.83
  -7   0  11   -0.66    0.72
  -7   0  11    0.41    0.68
   7   0 -11    0.01    0.78
   7   0 -11    1.79    0.99
   7   0 -11    0.10    1.02
   7   0 -11    0.21    0.62
   6   1   4    0.56    0.65
   6   1   4    0.70    0.61
   6   1   4    0.35    0.62
   6   1   4   -0.05    0.59
  -6  -1  -4   -0.16    0.55
  -6  -1  -4    1.19    0.64
  -6  -1  -4    0.20    0.82
   4   1   5    1.92    0.69
   4   1   5    1.46    0.62
   4   1   5    1.97    0.79
  -4  -1  -5    1.42    0.70
  -4  -1  -5    2.72    0.84
  -4  -1  -5    1.70    0.69
  -4  -1  -5    1.57    0.36
  -4  -1  -5    1.73    0.37
  -4  -1  -5    2.36    0.77
   2   1   6    1.77    0.61
   2   1   6    2.25    0.71
   2   1   6    2.81    0.81
   2   1   6    3.60    0.61
   2   1   6    3.21    0.57
  -2  -1  -6    3.28    0.58
  -2  -1  -6    2.03    0.55
  -2  -1  -6    2.63    0.65
  -2  -1  -6    3.17    0.56
  -2  -1  -6    2.48    0.78
  -2  -1  -6    2.90    0.78
   0   1   7    7.13    0.93
   0   1   7    5.69    0.79
   0   1   7    7.63    0.91
   0   1   7    5.83    0.73
   0   1   7    6.77    0.83
   0  -1  -7    6.33    0.89
   0  -1  -7    7.16    0.83
   0  -1  -7    7.41    0.83
   0  -1  -7    6.34    0.83
   0  -1  -7    7.36    0.96
   0  -1  -7    6.28    0.53
   0  -1  -7    6.07    0.52
  -2   1   8    8.14    0.94
  -2   1   8    7.73    0.87
  -2   1   8    8.00    1.08
  -2   1   8    8.22    0.90
  -2   1   8    7.61    1.01
   2  -1  -8    7.18    0.68
   2  -1  -8    7.79    0.74
   2  -1  -8    8.51    1.00
   2  -1  -8    7.96    0.98
   2  -1  -8    7.91    0.97
   2  -1  -8    7.36    0.82
   2  -1  -8    6.67    0.91
  -4   1   9    3.96    0.98
  -4   1   9    5.33    0.95
  -4   1   9    6.34    1.23
  -4   1   9    3.70    0.97
   4  -1  -9    3.50    0.96
   4  -1  -9    4.37    0.86
   4  -1  -9    3.78    0.89
  -6   1  10    4.90    1.02
  -6   1  10    3.55    1.06
  -6   1  10    5.52    1.26
   6  -1 -10    5.22    1.08
   6  -1 -10    5.25    1.35
   6  -1 -10    3.39    1.08
   6  -1 -10    5.28    1.09
   7   2   3   -0.10    0.88
   7   2   3    0.17    0.78
  -7  -2  -3    0.36    0.95
  -7  -2  -3    0.53    0.81
   5   2   4    4.48    1.08
   5   2   4    2.89    0.82
   5   2   4    1.84    0.77
   5   2   4    4.38    1.05
  -5  -2  -4    4.19    1.11
  -5  -2  -4    2.89    1.08
  -5  -2  -4    2.37    0.60
  -5  -2  -4    3.31    0.92
  -5  -2  -4    3.88    0.73
   3   2   5    6.82    1.35
   3   2   5    7.73    1.01
   3   2   5    6.87    1.00
   3   2   5    8.44    1.05
  -3  -2  -5    9.42    0.83
  -3  -2  -5    8.92    1.45
  -3  -2  -5    7.89    1.08
  -3  -2  -5    7.54    1.08
  -3  -2  -5    7.30    0.78
  -3  -2  -5    7.56    1.03
   1   2   6    8.50    1.11
   1   2   6    8.89    1.01
   1   2   6   10.02    0.90
   1   2   6    9.53    1.26
   1   2   6    8.96    1.01
   1   2   6   10.63    0.88
  -1  -2  -6    8.62    1.03
  -1  -2  -6   10.17    1.07
  -1  -2  -6    8.76    0.79
  -1  -2  -6    9.48    0.93
  -1  -2  -6    7.72    0.99
  -1   2   7   15.95    1.49
  -1   2   7   14.58    1.38
  -1   2   7   17.46    1.48
  -1   2   7   15.52    1.40
   1  -2  -7   15.70    1.14
   1  -2  -7   17.08    1.48
   1  -2  -7   14.68    1.12
   1  -2  -7   15.86    1.40
   1  -2  -7   18.00    1.29
   1  -2  -7   16.94    1.37
  -3   2   8   22.87    1.60
  -3   2   8   25.05    1.90
  -3   2   8   22.04    1.87
  -3   2   8   22.30    1.92
  -3   2   8   22.22    1.59
  -3   2   8   22.89    1.60
   3  -2  -8   23.79    1.65
   3  -2  -8   24.76    1.87
   3  -2  -8   22.57    1.62
   3  -2  -8   23.14    1.90
   3  -2  -8   20.79    1.80
  -5   2   9    3.65    0.81
  -5   2   9    3.87    0.98
  -5   2   9    3.82    0.81
  -5   2   9    2.99    0.86
   5  -2  -9    3.86    1.02
   5  -2  -9    4.58    0.92
   5  -2  -9    3.59    0.89
   5  -2  -9    4.65    1.23
  -7   2  10   -0.93    0.62
  -7   2  10   -0.86    0.64
  -7   2  10    0.47    0.66
   7  -2 -10   -0.89    0.55
   7  -2 -10    0.75    0.70
   7  -2 -10   -0.81    0.57
   7  -2 -10    0.49    0.83
   6   3   3    0.67    0.76
   6   3   3   -0.20    0.53
   6   3   3    0.31    0.64
   6   3   3   -0.27    0.54
  -6  -3  -3   -0.52    0.51
  -6  -3  -3   -0.12    0.67
  -6  -3  -3   -0.58    0.84
   4   3   4    1.46    0.72
   4   3   4    2.72    0.78
   4   3   4    1.22    0.61
   4   3   4    1.40    0.62
  -4  -3  -4    2.33    0.82
  -4  -3  -4    2.35    0.78
  -4  -3  -4    2.10    0.81
  -4  -3  -4   -0.08    0.50
  -4  -3  -4    1.36    0.59
   2   3   5   14.78    1.44
   2   3   5   14.70    1.47
   2   3   5   17.16    1.47
  -2  -3  -5   15.69    1.30
  -2  -3  -5   16.45    1.54
  -2  -3  -5   13.44    1.39
  -2  -3  -5   17.72    1.59
  -2  -3  -5   15.68    1.28
   0   3   6    4.68    0.96
   0   3   6    4.79    0.67
   0   3   6    4.28    0.90
   0   3   6    4.85    0.93
   0   3   6    4.63    0.82
   0   3   6    4.44    0.93
   0  -3  -6    5.13    1.01
   0  -3  -6    4.58    0.80
   0  -3  -6    3.95    0.94
   0  -3  -6    3.91    0.78
   0  -3  -6    3.55    0.72
  -2   3   7    0.09    0.27
  -2   3   7    0.40    0.42
  -2   3   7   -0.08    0.36
  -2   3   7    0.89    0.55
  -2   3   7    0.28    0.48
   2  -3  -7    0.33    0.25
   2  -3  -7    0.76    0.43
   2  -3  -7    1.25    0.58
   2  -3  -7    0.63    0.42
   2  -3  -7    0.47    0.39
  -4   3   8   13.93    1.47
  -4   3   8   14.01    1.11
  -4   3   8   15.54    1.15
  -4   3   8   14.47    1.69
  -4   3   8   17.09    1.60
  -4   3   8   15.46    1.65
   4  -3  -8   15.21    1.51
   4  -3  -8   17.91    1.44
   4  -3  -8   17.12    1.66
   4  -3  -8   18.63    1.53
  -6   3   9    5.43    1.19
  -6   3   9    4.78    1.27
  -6   3   9    4.34    1.16
  -6   3   9    5.27    0.81
   6  -3  -9    6.08    1.15
   6  -3  -9    3.37    1.07
   6  -3  -9    4.61    1.16
   6  -3  -9    5.24    1.02
  -8   3  10    0.24    0.86
  -8   3  10    0.30    1.07
  -8   3  10    1.32    1.00
  -8   3  10    0.95    0.97
   8  -3 -10    0.22    0.60
   8  -3 -10    1.37    1.13
   8  -3 -10    0.70    0.91
   5   4   3    1.71    0.87
   5   4   3    0.56    0.59
   5   4   3    0.58    0.61
   5   4   3    0.33    0.73
  -5  -4  -3    0.13    0.80
  -5  -4  -3    0.72    0.85
  -5  -4  -3    0.50    0.72
  -5  -4  -3   -0.41    0.60
   3   4   4    6.30    1.14
   3   4   4    7.23    1.18
   3   4   4    5.76    1.17
   3   4   4    5.02    1.07
  -3  -4  -4    6.70    1.29
  -3  -4  -4    4.99    1.12
  -3  -4  -4    4.54    0.91
  -3  -4  -4    4.62    1.07
   1   4   5   -0.01    0.40
   1   4   5    0.34    0.49
   1   4   5   -0.49    0.45
   1   4   5    0.33    0.52
   1   4   5   -0.18    0.47
  -1  -4  -5    0.36    0.47
  -1  -4  -5   -0.48    0.35
  -1  -4  -5   -0.45    0.37
  -1  -4  -5    0.11    0.38
  -1   4   6    4.71    0.97
  -1   4   6    4.76    0.62
  -1   4   6    6.60    1.21
  -1   4   6    5.31    1.05
  -1   4   6    4.40    0.85
  -1   4   6    6.21    0.95
   1  -4  -6    6.10    1.17
   1  -4  -6    2.91    0.73
   1  -4  -6    5.60    0.79
   1  -4  -6    5.52    0.85
   1  -4  -6    6.28    0.95
   1  -4  -6    5.54    1.05
  -3   4   7   -0.31    0.19
  -3   4   7   -0.09    0.21
  -3   4   7   -0.84    0.36
  -3   4   7   -0.96    0.41
  -3   4   7   -0.10    0.37
  -3   4   7   -0.17    0.31
   3  -4  -7    0.05    0.46
   3  -4  -7    0.93    0.52
   3  -4  -7   -0.25    0.34
   3  -4  -7    0.08    0.53
  -5   4   8    2.37    0.90
  -5   4   8    1.21    0.73
  -5   4   8    0.59    0.81
  -5   4   8    0.78    0.60
   5  -4  -8    0.82    0.65
   5  -4  -8    3.77    1.04
   5  -4  -8    1.56    0.78
   5  -4  -8    2.53    0.77
  -7   4   9    2.04    1.04
  -7   4   9    1.76    0.93
  -7   4   9    1.23    0.82
  -7   4   9    1.61    0.60
   7  -4  -9    1.24    0.73
   7  -4  -9    2.41    0.91
   7  -4  -9    2.24    1.09
   7  -4  -9    1.62    0.60
   4   5   3   -0.40    0.41
   4   5   3    0.56    0.53
   4   5   3   -0.28    0.52
   4   5   3   -0.62    0.51
  -4  -5  -3    0.01    0.42
  -4  -5  -3   -0.29    0.51
  -4  -5  -3   -0.08    0.65
  -4  -5  -3   -0.86    0.64
   2   5   4    8.92    1.22
   2   5   4    8.75    1.17
   2   5   4    8.79    1.09
   2   5   4    9.15    1.48
   2   5   4    8.70    1.04
  -2  -5  -4   10.81    1.16
  -2  -5  -4   11.15    1.21
  -2  -5  -4    8.90    1.20
  -2  -5  -4    8.66    1.13
   0   5   5   26.82    2.02
   0   5   5   25.31    2.06
   0   5   5   27.22    2.09
   0   5   5   28.14    2.11
   0   5   5   28.01    2.04
   0   5   5   23.33    1.82
   0  -5  -5   27.23    2.06
   0  -5  -5   26.38    1.90
   0  -5  -5   29.23    2.12
   0  -5  -5   29.19    2.23
  -2   5   6    7.52    1.00
  -2   5   6   10.89    1.64
  -2   5   6    8.06    1.10
  -2   5   6    7.36    0.65
  -2   5   6    7.55    1.05
   2  -5  -6    6.24    0.87
   2  -5  -6    7.27    1.02
   2  -5  -6    7.15    1.03
   2  -5  -6    8.03    0.66
   2  -5  -6    7.18    0.94
  -4   5   7    9.94    1.18
  -4   5   7   10.76    1.31
  -4   5   7    7.69    1.03
  -4   5   7    7.86    1.12
   4  -5  -7    7.97    1.07
   4  -5  -7    8.72    1.05
   4  -5  -7    7.28    0.94
   4  -5  -7    5.17    1.00
  -6   5   8   12.84    1.66
  -6   5   8   12.61    1.52
  -6   5   8   10.89    2.02
  -6   5   8   12.27    1.59
   6  -5  -8   11.94    1.34
   6  -5  -8   14.62    1.65
   6  -5  -8   13.47    1.26
  -8   5   9   -0.89    0.67
  -8   5   9    0.73    0.84
  -8   5   9   -0.39    0.61
   8  -5  -9    0.26    0.78
   8  -5  -9    0.14    0.91
   5   6   2   -0.39    0.79
   5   6   2    0.18    0.95
  -5  -6  -2    1.36    1.05
  -5  -6  -2    1.14    0.82
  -5  -6  -2    1.04    0.99
   3   6   3    2.98    0.77
   3   6   3    1.26    0.79
   3   6   3    0.59    0.71
   3   6   3    1.90    0.90
  -3  -6  -3    1.85    0.85
  -3  -6  -3    0.67    0.66
  -3  -6  -3    1.76    0.86
  -3  -6  -3    1.40    0.65
   1   6   4    4.51    1.05
   1   6   4    4.81    0.98
   1   6   4    4.03    1.06
   1   6   4    4.92    1.06
   1   6   4    4.03    1.07
  -1  -6  -4    4.30    1.04
  -1  -6  -4    5.00    1.14
  -1  -6  -4    5.71    1.18
  -1  -6  -4    3.88    0.89
  -1   6   5   15.78    1.52
  -1   6   5   16.54    1.57
  -1   6   5   16.60    1.49
  -1   6   5   14.31    1.43
  -1   6   5   16.24    1.56
  -1   6   5   15.90    1.26
   1  -6  -5   15.05    1.22
   1  -6  -5   16.46    1.60
   1  -6  -5   14.94    1.40
   1  -6  -5   17.39    1.60
  -3   6   6    0.83    0.63
  -3   6   6    2.21    0.65
  -3   6   6    0.27    0.58
   3  -6  -6    1.88    0.62
   3  -6  -6    2.05    0.66
   3  -6  -6    0.60    0.43
  -5   6   7   -0.39    0.43
  -5   6   7   -0.96    0.68
  -5   6   7   -0.53    0.50
  -5   6   7    0.79    0.89
   5  -6  -7   -1.18    0.65
   5  -6  -7   -0.75    0.51
   5  -6  -7    0.17    0.46
   5  -6  -7    0.24    0.67
  -7   6   8    0.89    1.02
  -7   6   8    0.18    0.66
   7  -6  -8    0.70    0.89
   7  -6  -8    0.46    0.82
   4   7   2    0.17    0.68
   4   7   2   -1.40    0.79
  -4  -7  -2    0.32    0.83
  -4  -7  -2    0.25    0.96
  -4  -7  -2    0.49    1.05
   2   7   3   -1.05    0.69
   2   7   3    0.35    0.53
   2   7   3    0.31    0.63
   2   7   3    0.34    0.70
  -2  -7  -3    1.50    0.75
  -2  -7  -3    0.56    0.71
  -2  -7  -3   -0.64    0.47
   0   7   4    7.10    1.33
   0   7   4    8.61    1.36
   0   7   4    7.62    1.48
   0   7   4    6.92    1.34
   0   7   4    5.88    1.17
   0  -7  -4    8.22    1.49
   0  -7  -4    5.99    1.05
   0  -7  -4    6.23    1.08
  -2   7   5    2.97    0.98
  -2   7   5    1.95    0.67
  -2   7   5    2.48    0.51
  -2   7   5    1.68    0.80
  -2   7   5    0.98    0.64
  -2   7   5    1.72    0.70
   2  -7  -5    1.15    0.70
   2  -7  -5    2.87    0.86
   2  -7  -5    1.98    0.64
   2  -7  -5    1.37    0.81
   2  -7  -5    1.40    0.37
  -4   7   6    8.56    1.58
  -4   7   6    7.65    1.56
  -4   7   6    5.84    1.27
  -4   7   6    6.07    1.20
   4  -7  -6   10.64    2.05
   4  -7  -6    6.09    1.13
   4  -7  -6    8.23    1.35
   4  -7  -6    7.18    1.30
  -6   7   7    0.21    0.62
  -6   7   7    2.13    0.72
  -6   7   7    0.72    1.43
  -6   7   7    0.59    0.63
   6  -7  -7    3.13    1.12
   6  -7  -7    2.36    0.94
   6  -7  -7    1.27    0.69
   6  -7  -7    2.23    0.93
  -8   7   8   -1.45    0.72
  -8   7   8    0.83    1.11
  -8   7   8    0.26    0.91
   8  -7  -8    0.66    0.99
   3   8   2    3.57    1.32
   3   8   2    3.44    1.20
  -3  -8  -2    2.36    0.88
  -3  -8  -2    3.81    1.43
  -3  -8  -2    4.76    1.39
   1   8   3   -0.06    0.50
   1   8   3    0.52    0.59
   1   8   3    0.28    0.69
   1   8   3    0.72    1.12
   1   8   3    0.50    0.57
  -1  -8  -3   -0.52    0.59
  -1  -8  -3   -0.23    0.47
  -1  -8  -3    0.31    0.66
  -1  -8  -3    0.83    0.66
  -1   8   4    5.66    1.20
  -1   8   4    4.47    1.03
  -1   8   4    3.86    1.03
  -1   8   4    5.14    1.26
   1  -8  -4    3.62    0.96
   1  -8  -4    3.57    0.86
   1  -8  -4    4.75    1.24
   1  -8  -4    4.09    1.02
  -3   8   5   10.33    1.64
  -3   8   5    8.97    1.32
  -3   8   5    8.52    1.52
  -3   8   5    8.83    1.25
  -3   8   5    9.17    1.16
   3  -8  -5   10.84    1.76
   3  -8  -5   11.05    1.34
   3  -8  -5    7.59    1.00
   3  -8  -5    9.60    1.65
  -5   8   6   11.92    1.45
  -5   8   6   12.52    1.49
  -5   8   6   11.47    1.54
   5  -8  -6   14.08    1.68
   5  -8  -6   12.64    1.49
   5  -8  -6   15.68    1.79
  -7   8   7    1.91    1.09
  -7   8   7   -0.49    0.94
  -7   8   7    0.47    0.82
   7  -8  -7   -0.77    0.99
   7  -8  -7    0.54    0.77
   7  -8  -7   -0.67    0.57
   2   9   2    1.37    0.93
   2   9   2    0.78    1.16
  -2  -9  -2    0.97    0.92
  -2  -9  -2    1.53    1.12
   0   9   3    0.69    0.57
   0   9   3    0.67    0.78
   0   9   3   -0.35    0.57
   0   9   3    2.40    0.71
   0  -9  -3    1.52    0.70
   0  -9  -3    0.28    0.63
   0  -9  -3    2.05    1.12
  -2   9   4    9.16    1.26
  -2   9   4    8.17    1.64
  -2   9   4    8.61    1.29
  -2   9   4    8.20    1.40
  -2   9   4    9.63    1.63
   2  -9  -4    9.55    1.71
   2  -9  -4    8.06    1.61
   2  -9  -4    7.85    0.88
   2  -9  -4    9.96    1.78
  -4   9   5    4.49    1.30
  -4   9   5    2.10    0.81
  -4   9   5    3.69    1.08
  -4   9   5    2.01    1.11
   4  -9  -5    2.74    0.99
   4  -9  -5    2.61    0.98
   4  -9  -5    3.87    1.10
  -6   9   6   -0.26    0.85
  -6   9   6    0.82    0.67
  -6   9   6   -0.37    0.88
   6  -9  -6    2.79    1.10
   6  -9  -6    0.64    0.85
   6  -9  -6   -0.65    0.72
   1  10   2   -0.67    0.92
  -1 -10  -2   -0.64    0.80
  -1 -10  -2    0.19    0.77
  -1  10   3   -0.16    0.64
  -1  10   3    0.07    0.68
  -1  10   3    0.54    0.77
  -1  10   3   -0.41    0.75
   1 -10  -3    0.59    0.93
   1 -10  -3    1.67    0.72
   1 -10  -3   -0.66    0.55
  -3  10   4    5.63    1.32
  -3  10   4    2.95    1.08
  -3  10   4    5.07    1.35
  -3  10   4    5.16    1.33
   3 -10  -4    1.91    1.28
   3 -10  -4    5.47    1.59
   3 -10  -4    4.63    1.20
  -5  10   5    0.04    0.93
  -5  10   5    0.16    0.65
   5 -10  -5    0.36    0.85
   5 -10  -5    0.41    1.07
   5 -10  -5    0.43    0.75
  -2  11   3    0.24    0.70
  -2  11   3   -0.27    0.87
  -2  11   3   -1.29    1.30
  -2  11   3    0.83    0.90
   2 -11  -3   -1.35    1.05
   2 -11  -3   -0.48    1.02
   2 -11  -3   -1.60    0.77
  -4  11   4    1.83    1.05
  -4  11   4    0.40    0.88
  -4  11   4   -0.20    0.76
   4 -11  -4    0.34    0.97
   4 -11  -4   -1.00    0.97
   4 -11  -4   -0.45    0.70
   2  -8  11    2.26    1.18
   2  -8  11    1.05    1.04
  -2   8 -11    0.61    0.92
  -2   8 -11    2.19    1.26
   5  -7   9    2.25    1.10
   5  -7   9    1.52    0.80
  -5   7  -9    1.66    1.10
  -5   7  -9    0.78    0.76
   3  -7  10    0.63    0.69
   3  -7  10    0.42    0.85
   3  -7  10    1.22    0.92
  -3   7 -10   -0.59    0.54
  -3   7 -10    1.08    0.91
  -3   7 -10   -0.72    0.60
  -3   7 -10   -0.07    0.70
  -3   7 -10    1.04    0.85
   1  -7  11   -0.10    0.83
   1  -7  11    1.06    0.89
   1  -7  11    0.54    0.92
  -1   7 -11    1.02    0.53
  -1   7 -11    0.44    0.84
  -1   7 -11   -0.88    0.74
  -1   7 -11    1.33    0.75
  -1   7 -11    1.05    0.92
  -1  -7  12    0.03    0.96
  -1  -7  12   -0.29    0.71
  -1  -7  12    1.14    1.03
   1   7 -12   -0.18    0.51
   1   7 -12   -0.67    0.92
   1   7 -12    1.47    0.93
   6  -6   8    0.58    0.85
  -6   6  -8    3.38    1.21
   4  -6   9   -0.13    0.58
   4  -6   9    3.23    1.32
   4  -6   9    0.14    0.38
  -4   6  -9   -0.23    0.78
  -4   6  -9    0.67    0.58
  -4   6  -9   -0.19    0.69
  -4   6  -9    0.21    0.65
  -4   6  -9   -0.17    0.54
   2  -6  10    2.38    0.93
   2  -6  10    1.31    0.75
   2  -6  10    1.46    0.80
  -2   6 -10    1.94    0.77
  -2   6 -10    1.86    0.67
  -2   6 -10    1.45    0.89
  -2   6 -10    3.53    0.96
  -2   6 -10    3.17    1.04
   0  -6  11    0.48    0.71
   0  -6  11    0.32    0.46
   0  -6  11   -0.30    0.77
   0   6 -11    0.31    0.67
   0   6 -11    0.49    0.70
   0   6 -11    0.58    0.75
   0   6 -11    0.56    0.58
  -2  -6  12    2.01    1.41
  -2  -6  12    0.56    0.68
  -2  -6  12    0.03    0.84
   2   6 -12   -0.11    1.16
   2   6 -12   -0.71    0.72
   2   6 -12    0.32    0.65
   7  -5   7    0.90    0.94
   7  -5   7    0.48    0.68
   7  -5   7    0.39    0.69
  -7   5  -7    0.27    0.79
  -7   5  -7    0.47    0.86
   5  -5   8    2.63    0.68
   5  -5   8    2.95    1.10
   5  -5   8    4.17    1.40
  -5   5  -8    4.03    1.19
  -5   5  -8    2.31    1.05
  -5   5  -8    3.96    1.02
  -5   5  -8    4.24    1.02
   3  -5   9    3.30    0.91
   3  -5   9    2.77    0.64
   3  -5   9    3.96    1.12
  -3   5  -9    2.80    0.57
  -3   5  -9    2.87    0.78
  -3   5  -9    3.02    0.78
  -3   5  -9    3.26    1.03
  -3   5  -9    3.51    1.03
   1  -5  10    9.41    1.55
   1  -5  10    7.87    1.44
   1  -5  10    9.80    1.82
  -1   5 -10   10.89    1.76
  -1   5 -10    9.62    1.60
  -1   5 -10    6.80    0.94
  -1   5 -10    7.41    1.01
  -1   5 -10    7.07    0.98
  -1  -5  11    4.99    1.37
  -1  -5  11    6.32    1.24
  -1  -5  11    4.41    0.91
  -1  -5  11    4.72    1.20
   1   5 -11    3.65    0.60
   1   5 -11    4.13    1.21
   1   5 -11    5.36    1.08
   1   5 -11    4.23    1.04
   1   5 -11    3.84    1.07
  -3  -5  12    1.73    0.79
  -3  -5  12    1.33    0.98
  -3  -5  12    2.01    0.86
   3   5 -12    1.24    0.67
   3   5 -12    2.53    0.97
   3   5 -12    2.98    1.12
   3   5 -12    2.72    0.95
   6  -4   7    1.80    0.82
   6  -4   7    0.35    0.88
  -6   4  -7    1.48    0.98
  -6   4  -7    2.72    0.94
  -6   4  -7    1.96    0.92
   4  -4   8    1.18    0.58
   4  -4   8    1.33    0.68
  -4   4  -8    0.94    0.62
  -4   4  -8    0.66    0.61
  -4   4  -8    1.58    0.64
  -4   4  -8    1.23    0.63
   2  -4   9   -0.34    0.44
   2  -4   9   -0.21    0.47
   2  -4   9   -1.00    0.56
  -2   4  -9    0.49    0.42
  -2   4  -9    0.04    0.42
  -2   4  -9    0.10    0.79
  -2   4  -9   -0.56    0.53
   0  -4  10   18.97    1.64
   0  -4  10   16.79    1.66
   0   4 -10   12.08    1.30
   0   4 -10   15.23    1.49
   0   4 -10   13.97    1.94
  -2  -4  11    7.38    1.31
  -2  -4  11    5.96    0.98
  -2  -4  11    8.44    1.63
  -2  -4  11    7.75    1.42
   2   4 -11    6.08    1.32
   2   4 -11    6.01    1.32
   2   4 -11    5.62    0.88
   2   4 -11    6.15    1.26
   2   4 -11    5.09    1.08
  -4  -4  12    1.09    0.80
  -4  -4  12    0.37    0.70
  -4  -4  12    1.48    0.98
   4   4 -12    0.14    0.72
   4   4 -12    0.63    0.93
   4   4 -12    0.55    0.76
   4   4 -12    0.21    0.81
   7  -3   6    1.19    0.90
   7  -3   6    0.38    0.59
  -7   3  -6   -0.56    0.63
  -7   3  -6   -0.19    0.70
  -7   3  -6    0.48    1.03
   5  -3   7   -0.30    0.34
   5  -3   7    0.49    0.60
   5  -3   7   -0.29    0.44
   5  -3   7    0.20    0.52
  -5   3  -7   -0.54    0.47
  -5   3  -7   -0.32    0.50
  -5   3  -7   -0.29    0.70
  -5   3  -7    0.25    0.64
   3  -3   8    2.06    0.78
   3  -3   8    2.59    0.93
   3  -3   8    1.17    0.37
  -3   3  -8    1.18    0.40
  -3   3  -8    2.26    0.90
  -3   3  -8    1.19    0.56
  -3   3  -8    1.76    0.65
   1  -3   9    0.35    0.34
   1  -3   9    0.30    0.52
   1  -3   9    0.26    0.42
  -1   3  -9    0.62    0.43
  -1   3  -9    0.72    0.52
  -1   3  -9    1.31    0.56
  -1   3  -9    0.79    0.52
  -1  -3  10    0.40    0.60
  -1  -3  10    2.51    0.78
  -1  -3  10   -0.09    0.48
  -1  -3  10    1.20    0.48
   1   3 -10    0.95    0.74
   1   3 -10    0.69    0.57
   1   3 -10    1.13    0.22
   1   3 -10    2.56    0.77
   1   3 -10    1.26    0.58
   1   3 -10    0.69    0.64
  -3  -3  11    1.08    0.85
  -3  -3  11    3.87    0.87
  -3  -3  11    2.11    0.62
  -3  -3  11    1.93    0.79
   3   3 -11    1.19    0.86
   3   3 -11    3.47    1.09
   3   3 -11    1.24    0.64
   3   3 -11    2.92    0.98
  -5  -3  12    0.85    1.16
  -5  -3  12    2.42    0.81
  -5  -3  12    1.52    0.71
   5   3 -12    2.59    1.03
   5   3 -12    1.90    1.19
   5   3 -12    1.32    0.72
   6  -2   6   -0.41    0.46
   6  -2   6   -0.66    0.40
   6  -2   6    0.22    0.52
  -6   2  -6    0.02    0.81
  -6   2  -6   -1.25    0.55
  -6   2  -6    0.17    1.34
  -6   2  -6    0.54    0.70
   4  -2   7    1.83    0.54
   4  -2   7    1.73    0.77
   4  -2   7    2.16    0.48
   4  -2   7    1.87    0.86
  -4   2  -7    2.33    0.93
  -4   2  -7    1.44    0.44
  -4   2  -7    3.14    0.87
  -4   2  -7    3.64    0.97
  -4   2  -7    0.64    0.60
   2  -2   8    0.85    0.64
   2  -2   8    1.64    0.68
   2  -2   8    0.45    0.33
   2  -2   8    0.72    0.40
  -2   2  -8    0.62    0.40
  -2   2  -8    2.08    0.69
  -2   2  -8    1.38    0.72
  -2   2  -8    0.55    0.47
   0  -2   9   12.95    1.24
   0  -2   9   12.01    1.41
   0  -2   9   11.09    1.36
   0   2  -9   11.93    1.34
   0   2  -9   10.95    1.15
   0   2  -9   11.10    1.27
   0   2  -9   14.22    1.33
   0   2  -9   12.81    1.20
  -2  -2  10   45.04    2.72
  -2  -2  10   55.54    3.38
  -2  -2  10   54.95    3.45
  -2  -2  10   47.51    3.09
  -2  -2  10   53.09    3.43
   2   2 -10   49.15    3.34
   2   2 -10   49.68    3.37
   2   2 -10   46.58    3.23
   2   2 -10   46.05    2.73
   2   2 -10   52.09    3.47
  -4  -2  11    0.74    0.61
  -4  -2  11    0.47    0.73
  -4  -2  11    0.88    0.62
   4   2 -11    1.47    0.90
   4   2 -11    0.99    0.78
   4   2 -11    1.04    0.85
   4   2 -11    0.75    0.48
  -6  -2  12   -0.79    0.79
  -6  -2  12   -0.53    0.84
  -6  -2  12   -0.75    0.67
   6   2 -12   -1.34    0.83
   6   2 -12    0.34    0.77
   6   2 -12    0.12    0.85
   6   2 -12   -0.53    0.63
   7  -1   5    0.93    0.97
   7  -1   5    0.48    0.58
   7  -1   5   -0.50    0.67
  -7   1  -5    0.44    0.85
  -7   1  -5    0.74    0.81
   5  -1   6   -0.19    0.57
   5  -1   6    0.58    0.49
   5  -1   6    0.41    0.44
  -5   1  -6    0.66    0.51
  -5   1  -6    0.77    0.77
  -5   1  -6    0.65    0.63
  -5   1  -6    0.16    0.51
   3  -1   7    2.15    0.65
   3  -1   7    1.20    0.46
   3  -1   7    1.12    0.49
  -3   1  -7    1.91    0.60
  -3   1  -7    3.10    0.75
  -3   1  -7    4.09    0.96
   1  -1   8    5.27    0.82
   1  -1   8    5.80    0.96
   1  -1   8    6.90    1.25
  -1   1  -8    7.03    1.24
  -1   1  -8    6.89    1.17
  -1   1  -8    4.68    0.67
  -1   1  -8    7.13    1.18
  -1   1  -8    5.79    0.97
  -1  -1   9    0.06    0.66
  -1  -1   9    0.41    0.37
  -1  -1   9    0.21    0.58
  -1  -1   9    1.13    0.54
   1   1  -9    0.70    0.12
   1   1  -9    0.88    0.51
   1   1  -9    1.54    0.66
   1   1  -9    0.52    0.54
   1   1  -9    0.97    0.45
   1   1  -9    0.90    0.52
  -3  -1  10   11.06    1.25
  -3  -1  10    9.51    1.21
  -3  -1  10    7.01    0.98
  -3  -1  10    9.39    1.13
  -3  -1  10    7.44    0.83
   3   1 -10    7.00    1.03
   3   1 -10    7.68    1.12
   3   1 -10    8.53    0.85
   3   1 -10    8.44    1.21
   3   1 -10    7.75    1.09
  -5  -1  11   -0.02    0.56
  -5  -1  11    0.05    0.68
  -5  -1  11    0.32    0.75
  -5  -1  11    0.94    0.63
   5   1 -11    0.13    0.73
   5   1 -11    0.42    0.48
   5   1 -11   -0.13    0.63
   5   1 -11    1.70    0.92
   6   0   5    9.80    1.27
   6   0   5    7.37    1.07
   6   0   5    9.22    1.16
   6   0   5    8.91    1.67
  -6   0  -5    7.57    1.30
  -6   0  -5    9.31    1.64
  -6   0  -5    7.18    1.44
   4   0   6    8.77    1.10
   4   0   6    8.38    1.02
   4   0   6    8.03    1.47
   4   0   6    6.77    0.83
  -4   0  -6    7.00    1.01
  -4   0  -6    7.07    0.81
  -4   0  -6    8.12    1.35
  -4   0  -6    7.81    1.43
  -4   0  -6    8.39    1.57
   2   0   7    0.17    0.32
   2   0   7    0.23    0.36
   2   0   7    0.56    0.35
  -2   0  -7    0.03    0.29
  -2   0  -7   -0.06    0.48
  -2   0  -7   -0.04    0.29
  -2   0  -7    0.96    0.44
  -2   0  -7    0.28    0.19
  -2   0  -7    1.22    0.58
   0   0   8    0.05    0.34
   0   0   8    0.51    0.45
   0   0   8   -0.35    0.32
   0   0   8    1.05    0.63
   0   0  -8    0.13    0.38
   0   0  -8    0.24    0.29
   0   0  -8   -0.04    0.35
   0   0  -8   -0.21    0.40
   0   0  -8    0.38    0.30
  -2   0   9    3.81    0.57
  -2   0   9    3.20    0.99
  -2   0   9    4.97    0.97
  -2   0   9    4.61    0.91
   2   0  -9    3.43    0.80
   2   0  -9    3.95    0.94
   2   0  -9    3.34    0.47
   2   0  -9    4.59    0.65
   2   0  -9    4.56    1.08
   2   0  -9    4.44    0.91
   2   0  -9    3.38    0.89
  -4   0  10    1.72    0.75
  -4   0  10    2.20    0.75
  -4   0  10    1.74    0.78
  -4   0  10    1.91    0.76
   4   0 -10    2.74    0.86
   4   0 -10    2.89    0.69
   4   0 -10    3.36    0.92
  -6   0  11   -0.42    0.67
  -6   0  11   -0.39    0.64
  -6   0  11   -0.02    0.63
  -6   0  11    0.77    0.60
   6   0 -11    0.22    0.58
   6   0 -11    0.03    0.70
   7   1   4   -0.37    0.87
   7   1   4    2.29    0.98
   7   1   4    0.81    0.69
  -7  -1  -4    0.75    0.73
  -7  -1  -4    0.61    0.88
   5   1   5    3.92    1.02
   5   1   5    3.90    0.83
   5   1   5    3.33    0.94
   5   1   5    2.78    0.93
  -5  -1  -5    2.65    0.29
  -5  -1  -5    4.91    1.15
  -5  -1  -5    3.37    0.94
  -5  -1  -5    2.61    1.01
   3   1   6    7.97    1.04
   3   1   6    9.09    0.88
   3   1   6    9.58    1.22
  -3  -1  -6    8.36    0.76
  -3  -1  -6    6.95    1.33
  -3  -1  -6    8.99    0.79
  -3  -1  -6    9.85    1.23
  -3  -1  -6    9.66    1.18
  -3  -1  -6    8.08    1.16
   1   1   7    4.44    0.44
   1   1   7    4.34    0.94
   1   1   7    3.57    0.78
   1   1   7    5.07    0.76
   1   1   7    3.00    0.77
  -1  -1  -7    3.95    0.95
  -1  -1  -7    3.15    0.39
  -1  -1  -7    5.30    0.85
  -1  -1  -7    3.77    0.93
  -1  -1  -7    4.31    0.98
  -1  -1  -7    3.46    0.80
  -1   1   8    0.68    0.43
  -1   1   8    0.82    0.44
  -1   1   8    0.92    0.57
   1  -1  -8    0.40    0.47
   1  -1  -8    0.90    0.52
   1  -1  -8    1.14    0.41
   1  -1  -8    0.81    0.51
   1  -1  -8    0.99    0.31
   1  -1  -8    1.09    0.30
   1  -1  -8    0.58    0.43
  -3   1   9   12.62    1.10
  -3   1   9   12.96    1.49
  -3   1   9   13.23    1.43
  -3   1   9   14.95    1.37
   3  -1  -9   13.49    1.42
   3  -1  -9   12.17    1.32
   3  -1  -9   14.85    1.43
   3  -1  -9   12.08    1.10
   3  -1  -9   12.84    1.09
  -5   1  10    1.69    0.76
  -5   1  10    1.51    0.79
  -5   1  10    1.39    0.75
  -5   1  10    2.11    0.88
   5  -1 -10    2.08    1.04
   5  -1 -10    1.41    0.85
   5  -1 -10    2.23    0.74
   5  -1 -10    1.71    0.81
  -7   1  11   -0.70    0.75
  -7   1  11   -0.41    0.71
  -7   1  11    1.18    0.82
  -7   1  11   -0.31    0.73
   7  -1 -11   -0.40    0.68
   7  -1 -11   -0.51    0.59
   7  -1 -11   -0.15    0.92
   7  -1 -11   -0.38    0.56
   6   2   4    0.05    0.63
   6   2   4    0.88    0.72
   6   2   4    0.35    0.65
   6   2   4    0.55    0.68
  -6  -2  -4   -0.62    0.52
  -6  -2  -4    0.56    0.66
  -6  -2  -4   -0.28    0.53
  -6  -2  -4   -0.20    0.92
   4   2   5    2.19    0.79
   4   2   5    3.11    0.87
   4   2   5    2.39    0.66
   4   2   5    3.50    0.91
  -4  -2  -5    3.51    0.64
  -4  -2  -5    2.68    0.98
  -4  -2  -5    3.21    0.99
  -4  -2  -5    3.18    0.89
  -4  -2  -5    2.98    0.63
   2   2   6    4.08    0.99
   2   2   6    4.95    1.00
   2   2   6    3.94    0.81
   2   2   6    4.56    0.92
   2   2   6    4.84    0.67
  -2  -2  -6    3.98    1.03
  -2  -2  -6    5.42    1.07
  -2  -2  -6    6.26    1.16
  -2  -2  -6    4.10    0.95
  -2  -2  -6    5.27    0.83
   0   2   7   13.31    1.28
   0   2   7   11.63    1.15
   0   2   7   11.65    1.31
   0   2   7   12.03    0.91
   0   2   7    8.12    1.11
   0  -2  -7    9.97    1.07
   0  -2  -7    9.59    0.85
   0  -2  -7   11.28    1.17
   0  -2  -7   11.02    1.15
   0  -2  -7   10.67    1.09
   0  -2  -7   10.21    0.85
   0  -2  -7   13.07    1.30
  -2   2   8    9.29    1.65
  -2   2   8    7.95    1.01
  -2   2   8    7.28    0.81
  -2   2   8    9.94    1.24
   2  -2  -8    9.04    0.82
   2  -2  -8    7.44    0.96
   2  -2  -8    8.47    0.88
   2  -2  -8    8.72    0.82
   2  -2  -8    7.64    1.03
   2  -2  -8    8.14    1.07
   2  -2  -8    8.42    1.03
  -4   2   9    1.11    0.53
  -4   2   9    1.31    0.63
  -4   2   9    1.71    0.58
  -4   2   9    1.04    0.72
  -4   2   9    1.01    0.76
   4  -2  -9    1.23    0.55
   4  -2  -9    2.25    0.71
   4  -2  -9    0.85    0.61
   4  -2  -9    1.56    0.70
  -6   2  10   -0.65    0.59
  -6   2  10    0.03    0.53
  -6   2  10    0.53    0.71
  -6   2  10   -0.25    0.48
   6  -2 -10   -0.35    0.63
   6  -2 -10    0.13    0.69
   6  -2 -10    0.52    0.61
   6  -2 -10   -0.22    0.50
   5   3   4   -0.29    0.47
   5   3   4    0.12    0.57
   5   3   4    0.26    1.22
   5   3   4    0.47    0.65
  -5  -3  -4   -0.97    0.70
  -5  -3  -4   -0.39    0.76
  -5  -3  -4   -0.44    0.58
  -5  -3  -4   -1.20    0.58
  -5  -3  -4    0.65    0.69
   3   3   5    7.68    1.10
   3   3   5    6.96    0.97
   3   3   5    7.61    1.05
   3   3   5    7.82    1.03
  -3  -3  -5    6.80    1.30
  -3  -3  -5    7.47    0.88
  -3  -3  -5   10.17    1.57
  -3  -3  -5    8.98    1.21
  -3  -3  -5    5.70    0.85
   1   3   6   60.55    3.75
   1   3   6   61.94    3.74
   1   3   6   61.47    3.81
   1   3   6   60.68    3.49
  -1  -3  -6   56.74    3.41
  -1  -3  -6   56.75    3.73
  -1  -3  -6   56.08    3.62
  -1  -3  -6   60.91    3.83
  -1  -3  -6   60.50    3.76
  -1   3   7   28.73    2.24
  -1   3   7   28.95    2.15
  -1   3   7   31.73    2.04
  -1   3   7   28.69    2.17
  -1   3   7   26.38    2.10
   1  -3  -7   28.65    2.08
   1  -3  -7   24.80    1.79
   1  -3  -7   28.05    2.14
   1  -3  -7   28.68    1.91
   1  -3  -7   26.99    2.08
  -3   3   8    0.74    0.72
  -3   3   8    0.73    0.38
  -3   3   8    1.01    0.46
  -3   3   8    1.66    0.75
  -3   3   8    0.24    0.59
  -3   3   8    0.41    0.36
   3  -3  -8    0.31    0.46
   3  -3  -8    0.20    0.42
   3  -3  -8    0.25    0.54
  -5   3   9    1.62    0.87
  -5   3   9    1.08    0.59
  -5   3   9    1.50    0.54
  -5   3   9    1.05    0.45
  -5   3   9    0.81    0.75
   5  -3  -9    1.63    0.78
   5  -3  -9    1.05    0.78
   5  -3  -9    1.35    0.66
   5  -3  -9    0.84    0.50
  -7   3  10    1.69    0.85
  -7   3  10   -0.02    0.85
   7  -3 -10    0.37    0.67
   6   4   3   -0.50    0.86
   6   4   3   -0.01    0.70
   6   4   3    0.94    0.85
   6   4   3    0.57    1.07
  -6  -4  -3   -1.62    0.86
  -6  -4  -3   -0.14    1.03
  -6  -4  -3    0.13    0.90
   4   4   4    5.42    1.13
   4   4   4    4.18    1.10
   4   4   4    5.88    1.22
   4   4   4    6.38    1.19
  -4  -4  -4    5.85    1.06
  -4  -4  -4    3.65    1.15
  -4  -4  -4    5.26    1.30
  -4  -4  -4    6.77    1.47
   2   4   5    0.55    0.45
   2   4   5    0.41    0.68
   2   4   5    0.31    0.55
   2   4   5   -0.15    0.62
  -2  -4  -5    0.86    0.62
  -2  -4  -5    1.16    0.61
  -2  -4  -5    0.57    0.53
  -2  -4  -5    0.70    0.64
   0   4   6   17.40    1.63
   0   4   6   19.79    1.68
   0   4   6   20.09    1.71
   0   4   6   18.71    1.63
   0   4   6   16.57    1.43
   0  -4  -6   18.42    1.62
   0  -4  -6   18.67    1.50
   0  -4  -6   20.92    1.63
   0  -4  -6   17.62    1.64
  -2   4   7    9.54    1.33
  -2   4   7   10.36    0.89
  -2   4   7   12.01    1.31
  -2   4   7   10.66    1.24
   2  -4  -7   12.28    1.31
   2  -4  -7   10.89    1.18
   2  -4  -7   12.21    1.23
   2  -4  -7   12.03    0.89
   2  -4  -7    8.78    1.16
  -4   4   8    1.42    0.77
  -4   4   8    0.64    0.81
  -4   4   8    0.23    0.25
  -4   4   8    0.45    0.48
  -4   4   8    0.09    0.23
  -4   4   8    0.90    0.72
   4  -4  -8   -0.22    0.49
   4  -4  -8    0.48    0.53
   4  -4  -8    0.42    0.52
   4  -4  -8    0.75    0.66
  -6   4   9    2.19    0.88
  -6   4   9    4.91    1.30
  -6   4   9    2.68    0.55
  -6   4   9    2.96    0.99
  -6   4   9    2.89    0.54
   6  -4  -9    4.20    1.24
   6  -4  -9    3.03    0.86
   6  -4  -9    3.77    1.24
   6  -4  -9    2.28    0.89
  -8   4  10    0.92    0.84
  -8   4  10    0.90    0.85
  -8   4  10    2.58    1.33
   8  -4 -10    1.94    0.99
   5   5   3    0.99    0.87
   5   5   3    1.00    0.85
   5   5   3    0.06    0.66
   5   5   3   -0.60    0.76
  -5  -5  -3    1.12    0.86
  -5  -5  -3    0.80    0.99
  -5  -5  -3    2.04    1.10
  -5  -5  -3    0.29    0.87
   3   5   4    2.68    0.84
   3   5   4    3.46    0.84
   3   5   4    2.14    0.71
   3   5   4    2.10    0.88
  -3  -5  -4    2.56    0.78
  -3  -5  -4    2.73    0.99
  -3  -5  -4    4.35    1.02
  -3  -5  -4    1.94    0.79
   1   5   5    0.58    0.59
   1   5   5   -0.04    0.48
   1   5   5   -0.46    0.37
   1   5   5   -0.55    0.44
   1   5   5   -0.29    0.49
  -1  -5  -5    0.34    0.47
  -1  -5  -5   -0.11    0.39
  -1  -5  -5    0.18    0.52
  -1  -5  -5   -0.18    0.59
  -1   5   6    0.30    0.36
  -1   5   6    0.64    0.52
  -1   5   6    1.03    0.70
  -1   5   6   -0.54    0.33
  -1   5   6    0.28    0.58
  -1   5   6   -0.14    0.44
   1  -5  -6    1.26    0.65
   1  -5  -6    0.13    0.43
   1  -5  -6    0.71    0.51
   1  -5  -6    0.23    0.33
   1  -5  -6    0.19    0.43
  -3   5   7   28.84    2.18
  -3   5   7   28.27    2.27
  -3   5   7   22.10    1.44
  -3   5   7   27.67    2.18
  -3   5   7   24.28    2.11
   3  -5  -7   26.21    2.06
   3  -5  -7   26.36    1.98
   3  -5  -7   23.28    1.97
   3  -5  -7   26.08    2.10
  -5   5   8    0.61    0.51
  -5   5   8    0.05    0.49
  -5   5   8    2.24    1.03
  -5   5   8    1.69    0.82
   5  -5  -8    1.01    0.67
   5  -5  -8    1.01    0.68
   5  -5  -8    0.53    0.48
   5  -5  -8   -0.06    0.51
  -7   5   9    1.54    0.86
  -7   5   9    1.38    0.96
   7  -5  -9    1.99    0.76
   7  -5  -9    0.66    0.77
   7  -5  -9    2.23    1.09
   4   6   3    2.08    0.85
   4   6   3    1.22    0.73
   4   6   3    0.24    0.84
   4   6   3    1.05    0.79
  -4  -6  -3    0.09    0.89
  -4  -6  -3    0.52    0.81
  -4  -6  -3    0.73    0.79
   2   6   4    0.08    0.54
   2   6   4   -0.18    0.46
   2   6   4   -0.69    0.51
   2   6   4   -0.93    0.79
   2   6   4    0.31    0.58
  -2  -6  -4    1.60    0.73
  -2  -6  -4    0.30    0.61
  -2  -6  -4   -0.86    0.47
  -2  -6  -4   -0.82    0.56
   0   6   5    6.04    1.18
   0   6   5    4.20    0.96
   0   6   5    4.32    1.04
   0   6   5    6.64    1.21
   0   6   5    7.91    1.39
   0  -6  -5    5.50    1.14
   0  -6  -5    4.11    0.83
   0  -6  -5    4.40    1.01
   0  -6  -5    5.63    1.21
  -2   6   6   13.48    1.50
  -2   6   6   12.78    1.41
  -2   6   6   12.91    1.33
  -2   6   6   12.00    0.94
  -2   6   6   13.68    1.39
  -2   6   6   13.89    1.37
   2  -6  -6   13.15    1.37
   2  -6  -6   12.91    0.96
   2  -6  -6   12.14    1.23
   2  -6  -6   13.87    1.38
   2  -6  -6   14.91    1.50
  -4   6   7    6.77    1.25
  -4   6   7    8.37    1.71
  -4   6   7    7.51    1.42
  -4   6   7    8.57    1.57
   4  -6  -7    7.99    1.41
   4  -6  -7    8.92    1.44
   4  -6  -7    7.58    1.26
  -6   6   8    0.17    1.39
  -6   6   8    0.43    0.60
  -6   6   8    1.09    0.76
  -6   6   8    0.41    0.82
   6  -6  -8    0.74    0.83
   6  -6  -8    0.67    0.65
   6  -6  -8    1.26    0.66
   6  -6  -8    1.34    1.11
  -8   6   9    0.45    0.70
  -8   6   9   -1.22    0.69
  -8   6   9    0.94    0.97
   8  -6  -9    1.21    1.26
   3   7   3    1.94    0.91
   3   7   3    2.49    1.20
   3   7   3    1.58    1.00
   3   7   3    1.58    0.75
  -3  -7  -3    1.51    0.82
  -3  -7  -3    2.64    1.09
  -3  -7  -3    4.05    1.29
   1   7   4    1.79    0.83
   1   7   4    3.09    0.93
   1   7   4    1.47    0.77
   1   7   4    2.04    1.00
   1   7   4    1.29    0.71
  -1  -7  -4    2.57    0.98
  -1  -7  -4    2.83    0.96
  -1  -7  -4    1.16    0.62
  -1  -7  -4    1.62    0.66
  -1   7   5    8.18    1.18
  -1   7   5    8.69    1.23
  -1   7   5    8.20    1.17
  -1   7   5    8.40    1.21
  -1   7   5    9.64    1.58
  -1   7   5    8.70    1.14
   1  -7  -5    8.54    1.19
   1  -7  -5    8.51    0.94
   1  -7  -5    9.79    1.30
   1  -7  -5    8.54    1.07
  -3   7   6   12.02    1.76
  -3   7   6    9.48    1.34
  -3   7   6    7.51    1.09
  -3   7   6    9.49    1.57
   3  -7  -6    8.29    1.11
   3  -7  -6    9.93    1.54
  -5   7   7    3.43    1.30
  -5   7   7    2.49    0.80
  -5   7   7    3.43    1.21
  -5   7   7    2.27    0.92
   5  -7  -7    4.57    1.12
   5  -7  -7    2.65    0.89
   5  -7  -7    1.36    0.72
   5  -7  -7    2.18    0.94
  -7   7   8    1.41    0.79
  -7   7   8   -0.46    1.02
  -7   7   8   -0.25    0.80
   7  -7  -8   -0.78    0.55
   7  -7  -8    0.35    0.98
   7  -7  -8    1.00    1.15
   2   8   3    1.89    0.78
   2   8   3    3.78    1.13
   2   8   3    2.59    0.82
   2   8   3    0.46    0.67
  -2  -8  -3    1.37    0.79
  -2  -8  -3    3.09    1.06
  -2  -8  -3    0.90    0.93
   0   8   4    1.92    0.80
   0   8   4    2.35    0.95
   0   8   4    2.54    0.89
   0   8   4    2.79    1.05
   0   8   4    1.96    0.75
   0  -8  -4    1.60    0.62
   0  -8  -4    0.52    0.72
   0  -8  -4    1.55    0.99
   0  -8  -4    1.53    0.77
  -2   8   5    0.43    0.51
  -2   8   5    0.38    0.63
  -2   8   5    0.69    0.61
  -2   8   5    1.09    0.62
  -2   8   5    0.39    0.77
  -2   8   5    0.28    0.68
   2  -8  -5    1.56    0.43
   2  -8  -5    0.27    0.55
   2  -8  -5    0.16    0.82
   2  -8  -5    1.46    0.78
   2  -8  -5    2.81    1.18
  -4   8   6    3.48    1.11
  -4   8   6    3.96    1.22
  -4   8   6    6.27    1.51
  -4   8   6    3.96    1.06
   4  -8  -6    2.98    0.90
   4  -8  -6    4.44    1.05
   4  -8  -6    2.46    0.98
  -6   8   7    1.55    0.76
  -6   8   7    0.50    0.77
  -6   8   7    0.78    0.67
   6  -8  -7    0.13    0.72
   6  -8  -7   -1.98    0.75
   6  -8  -7   -0.04    1.00
   1   9   3   -0.71    0.60
   1   9   3    0.91    0.81
   1   9   3   -0.62    0.82
   1   9   3   -0.59    0.65
  -1  -9  -3   -0.29    0.88
  -1  -9  -3   -0.72    0.89
  -1  -9  -3    1.00    0.81
  -1   9   4    0.92    0.75
  -1   9   4    0.43    0.59
  -1   9   4    0.58    0.63
  -1   9   4    0.21    0.85
   1  -9  -4    0.56    0.85
   1  -9  -4    1.18    0.81
   1  -9  -4    0.85    0.60
  -3   9   5    8.16    1.63
  -3   9   5    9.27    1.54
  -3   9   5    5.10    1.76
  -3   9   5    6.21    1.33
  -3   9   5    4.76    1.27
   3  -9  -5    9.35    1.78
   3  -9  -5    8.08    1.60
   3  -9  -5    8.90    1.62
  -5   9   6    0.02    0.95
  -5   9   6    0.53    0.79
  -5   9   6    1.31    0.89
   5  -9  -6    0.29    1.08
   5  -9  -6    1.40    0.93
   5  -9  -6    1.29    0.76
  -7   9   7   -0.46    1.04
  -7   9   7    1.36    1.09
   7  -9  -7    0.80    0.86
   0  10   3    2.26    1.10
   0  10   3    2.29    1.06
   0  10   3    4.59    1.87
   0 -10  -3    3.83    1.47
   0 -10  -3    2.37    0.95
  -2  10   4    0.52    0.59
  -2  10   4   -1.09    0.79
  -2  10   4    0.83    0.73
   2 -10  -4    3.39    1.38
   2 -10  -4   -0.83    0.61
   2 -10  -4   -1.42    0.79
   2 -10  -4   -0.08    0.80
  -4  10   5    0.47    0.77
  -4  10   5    0.48    0.90
  -4  10   5    0.16    0.75
   4 -10  -5    1.40    1.04
   4 -10  -5    0.20    0.79
   4 -10  -5   -1.16    0.70
  -6  10   6    0.93    0.94
   6 -10  -6    0.39    1.15
   6 -10  -6   -0.85    1.07
   6 -10  -6   -1.21    0.91
  -3  11   4    2.01    1.01
  -3  11   4    1.60    0.81
  -3  11   4    0.91    0.96
   3 -11  -4    2.77    1.15
   3 -11  -4    0.20    0.72
   4  -7  10    0.32    0.76
   4  -7  10    0.85    1.03
  -4   7 -10   -0.01    0.78
   2  -7  11    0.99    0.95
   2  -7  11    3.97    1.28
   2  -7  11   -1.50    0.78
  -2   7 -11    1.60    0.81
  -2   7 -11    1.60    1.05
  -2   7 -11    0.28    0.64
  -2   7 -11    0.72    0.88
   0  -7  12    2.10    0.97
   0  -7  12    1.76    0.87
   0  -7  12    2.39    0.99
   0   7 -12    0.01    0.96
   0   7 -12    0.74    0.99
   0   7 -12    0.19    0.53
   5  -6   9    1.08    0.96
   5  -6   9    1.98    1.05
  -5   6  -9    0.59    0.86
  -5   6  -9    0.62    0.75
  -5   6  -9   -0.72    0.51
   3  -6  10    0.69    0.88
   3  -6  10    1.34    0.86
  -3   6 -10   -0.22    0.61
  -3   6 -10   -0.16    0.72
  -3   6 -10    0.29    0.58
  -3   6 -10   -0.05    0.68
  -3   6 -10   -0.42    0.55
   1  -6  11    4.13    1.29
   1  -6  11    5.91    1.29
   1  -6  11    2.27    1.14
  -1   6 -11    5.17    1.36
  -1   6 -11    6.43    1.47
  -1   6 -11    5.18    0.99
  -1   6 -11    4.00    1.07
  -1   6 -11    4.45    1.05
  -1  -6  12    0.38    0.81
  -1  -6  12    1.03    1.15
  -1  -6  12    0.88    0.74
   1   6 -12    1.98    0.89
   1   6 -12    1.46    1.01
   1   6 -12    2.00    1.06
   6  -5   8    0.35    1.12
  -6   5  -8    0.51    0.78
  -6   5  -8    2.47    1.01
   4  -5   9    2.78    0.96
   4  -5   9    2.09    0.41
   4  -5   9    4.97    1.30
  -4   5  -9    2.70    0.91
  -4   5  -9    4.02    1.25
  -4   5  -9    3.18    0.90
  -4   5  -9    3.47    1.04
   2  -5  10    0.15    0.69
   2  -5  10    0.42    0.71
  -2   5 -10   -0.09    0.66
  -2   5 -10    0.53    0.52
  -2   5 -10   -0.36    0.70
  -2   5 -10    0.05    0.50
  -2   5 -10    0.00    0.45
   0  -5  11   -0.63    0.67
   0  -5  11   -1.17    0.58
   0   5 -11    0.80    0.52
   0   5 -11    0.13    0.65
   0   5 -11   -0.14    0.70
   0   5 -11   -0.93    0.59
   0   5 -11   -0.45    0.60
  -2  -5  12    2.37    0.90
  -2  -5  12    2.05    1.11
  -2  -5  12    5.79    1.37
   2   5 -12    2.54    1.12
   2   5 -12    3.36    1.13
   2   5 -12    2.29    0.81
   7  -4   7    1.30    1.04
   7  -4   7    1.84    1.10
   7  -4   7    1.49    0.70
  -7   4  -7    2.27    0.99
  -7   4  -7   -0.12    0.86
   5  -4   8    1.32    0.85
   5  -4   8    1.28    0.42
   5  -4   8    2.98    1.10
  -5   4  -8    1.01    0.67
  -5   4  -8    3.29    1.09
  -5   4  -8    1.67    0.77
  -5   4  -8   -0.83    0.89
   3  -4   9    1.43    0.75
   3  -4   9    1.56    0.73
   3  -4   9    0.80    0.42
  -3   4  -9    2.11    0.91
  -3   4  -9    1.41    0.73
  -3   4  -9    1.10    0.66
  -3   4  -9    0.67    0.45
  -3   4  -9    1.05    0.53
   1  -4  10    2.05    0.95
   1  -4  10    0.17    0.73
  -1   4 -10    2.76    0.74
  -1   4 -10    0.58    0.51
  -1   4 -10    2.15    0.70
  -1   4 -10    1.37    0.83
  -1   4 -10    1.23    0.67
  -1  -4  11    7.57    1.43
  -1  -4  11    6.07    1.31
  -1  -4  11    5.75    1.31
   1   4 -11    5.12    1.29
   1   4 -11    6.37    1.34
   1   4 -11    7.97    1.70
   1   4 -11    4.78    1.10
  -3  -4  12    3.76    1.12
  -3  -4  12    4.28    1.02
  -3  -4  12    0.88    0.98
   3   4 -12    3.82    1.16
   3   4 -12    2.42    0.71
   3   4 -12    1.46    0.93
   3   4 -12    2.31    0.83
   6  -3   7   -0.04    0.48
   6  -3   7    1.78    0.97
  -6   3  -7    0.11    0.86
  -6   3  -7    1.43    0.88
  -6   3  -7   -0.89    0.55
   4  -3   8    3.11    1.08
   4  -3   8    3.02    0.73
   4  -3   8    3.59    1.12
  -4   3  -8    4.28    1.01
  -4   3  -8    3.60    1.00
  -4   3  -8    3.86    1.20
   2  -3   9   -0.43    0.44
   2  -3   9    0.23    0.38
   2  -3   9   -0.02    0.42
  -2   3  -9    0.76    0.64
  -2   3  -9    0.06    0.47
  -2   3  -9   -1.00    0.38
  -2   3  -9    0.72    0.42
   0  -3  10   -0.09    0.53
   0  -3  10    0.09    0.70
   0  -3  10    0.26    0.44
   0  -3  10    0.45    0.66
   0   3 -10   -0.06    0.47
   0   3 -10   -0.39    0.38
   0   3 -10   -0.43    0.43
   0   3 -10   -0.11    0.48
   0   3 -10    0.87    0.68
  -2  -3  11   -0.66    0.41
  -2  -3  11   -0.65    0.61
  -2  -3  11   -0.10    0.35
  -2  -3  11    0.52    0.69
  -2  -3  11    0.03    0.67
   2   3 -11    0.22    0.28
   2   3 -11    0.33    0.54
   2   3 -11   -0.09    0.61
   2   3 -11    0.75    0.69
  -4  -3  12    0.14    0.60
  -4  -3  12    0.91    0.75
  -4  -3  12   -0.73    0.63
   4   3 -12    0.51    0.85
   4   3 -12    0.99    0.80
   4   3 -12   -0.13    0.53
   4   3 -12    0.06    0.63
   7  -2   6    0.11    0.60
   7  -2   6    0.81    0.96
   7  -2   6    0.25    0.67
  -7   2  -6    0.02    0.73
  -7   2  -6    0.02    0.88
  -7   2  -6    1.05    1.29
   5  -2   7    0.58    0.56
   5  -2   7    0.48    0.50
   5  -2   7    0.03    0.37
   5  -2   7   -0.02    0.45
  -5   2  -7    0.44    0.60
  -5   2  -7   -0.17    0.55
  -5   2  -7    0.42    0.82
  -5   2  -7   -0.78    0.41
  -5   2  -7   -0.17    0.61
   3  -2   8    6.29    0.56
   3  -2   8    6.71    0.98
   3  -2   8    6.65    1.36
   3  -2   8    8.56    1.49
  -3   2  -8    7.31    1.41
  -3   2  -8    5.36    0.55
  -3   2  -8    7.01    1.18
  -3   2  -8    6.84    1.26
  -3   2  -8    5.35    1.10
   1  -2   9    2.56    0.99
   1  -2   9    2.31    0.59
   1  -2   9    1.79    0.78
  -1   2  -9    2.42    0.84
  -1   2  -9    2.72    0.85
  -1   2  -9    2.04    0.75
  -1   2  -9    2.68    0.66
  -1   2  -9    2.70    0.86
  -1  -2  10    3.78    0.89
  -1  -2  10    3.39    0.81
  -1  -2  10    4.06    1.08
   1   2 -10    5.10    1.02
   1   2 -10    2.98    0.79
   1   2 -10    4.48    1.08
   1   2 -10    4.30    0.89
  -3  -2  11    5.59    0.96
  -3  -2  11    5.12    1.14
  -3  -2  11    4.35    1.16
  -3  -2  11    3.31    0.74
  -3  -2  11    4.28    1.13
   3   2 -11    4.23    1.06
   3   2 -11    4.96    0.81
   3   2 -11    4.59    1.19
   3   2 -11    5.74    1.40
   3   2 -11    4.02    1.24
  -5  -2  12    1.44    1.14
  -5  -2  12    0.50    0.67
  -5  -2  12   -0.47    0.81
   5   2 -12    0.15    0.59
   5   2 -12   -0.08    0.75
   5   2 -12    0.80    0.88
   5   2 -12    3.90    1.21
   6  -1   6    0.97    0.68
   6  -1   6    1.59    0.82
   6  -1   6    3.20    1.07
  -6   1  -6    0.77    0.57
  -6   1  -6   -0.14    0.70
  -6   1  -6    0.90    0.91
   4  -1   7    1.78    0.55
   4  -1   7    1.01    0.71
   4  -1   7    2.35    0.87
   4  -1   7    2.08    0.56
  -4   1  -7    1.55    0.73
  -4   1  -7    3.68    0.91
  -4   1  -7    3.58    0.96
  -4   1  -7    1.68    0.52
   2  -1   8    1.50    0.56
   2  -1   8    1.02    0.42
   2  -1   8    2.08    0.83
   2  -1   8    0.61    0.61
  -2   1  -8    1.33    0.62
  -2   1  -8    1.45    0.62
  -2   1  -8    1.38    0.44
  -2   1  -8    0.54    0.47
  -2   1  -8    1.98    0.72
   0  -1   9    1.54    0.63
   0  -1   9    1.83    0.57
   0  -1   9    1.92    0.70
   0   1  -9    2.02    0.72
   0   1  -9    2.56    0.71
   0   1  -9    2.72    0.85
   0   1  -9    0.89    0.59
   0   1  -9    2.72    0.89
  -2  -1  10    1.73    0.73
  -2  -1  10    1.42    0.52
  -2  -1  10    0.89    0.48
  -2  -1  10    1.11    0.35
  -2  -1  10    0.85    0.63
   2   1 -10    1.55    0.40
   2   1 -10    1.05    0.62
   2   1 -10    1.64    0.71
   2   1 -10    0.64    0.58
   2   1 -10    1.55    0.35
   2   1 -10    0.59    0.58
   2   1 -10    1.57    0.64
  -4  -1  11    2.33    1.04
  -4  -1  11    0.06    0.61
  -4  -1  11    0.41    0.61
  -4  -1  11    0.27    0.56
   4   1 -11    0.74    0.60
   4   1 -11    1.14    0.64
   4   1 -11   -0.37    1.00
   4   1 -11    0.96    0.48
  -6  -1  12   -0.26    0.82
  -6  -1  12    0.26    0.71
  -6  -1  12    0.26    0.80
   6   1 -12    1.66    0.97
   6   1 -12    0.12    0.72
   6   1 -12    0.68    0.85
   7   0   5    0.41    0.69
   7   0   5    1.48    1.09
   7   0   5    1.12    0.83
  -7   0  -5    0.19    1.00
   5   0   6   -0.37    0.48
   5   0   6    0.06    0.51
   5   0   6   -0.23    0.51
   5   0   6   -0.61    0.65
  -5   0  -6   -0.84    0.68
  -5   0  -6    0.50    0.53
  -5   0  -6    0.85    0.69
  -5   0  -6    0.90    0.77
   3   0   7    5.09    0.59
   3   0   7    7.09    1.33
   3   0   7    5.88    1.04
   3   0   7    9.50    1.52
  -3   0  -7    7.16    1.27
  -3   0  -7    5.65    0.57
  -3   0  -7    7.60    1.05
  -3   0  -7    7.39    1.38
  -3   0  -7    6.39    0.60
  -3   0  -7    5.33    1.05
  -3   0  -7    5.00    0.59
   1   0   8    0.37    0.52
   1   0   8   -0.12    0.33
   1   0   8   -0.50    0.34
   1   0   8    0.05    0.34
  -1   0  -8   -0.44    0.44
  -1   0  -8    0.42    0.39
  -1   0  -8    0.21    0.43
  -1   0  -8   -0.32    0.47
  -1   0  -8    0.03    0.34
  -1   0   9   -0.38    0.38
  -1   0   9    0.19    0.39
  -1   0   9    0.88    0.60
   1   0  -9   -0.11    0.39
   1   0  -9    0.01    0.43
   1   0  -9   -0.11    0.28
   1   0  -9    0.19    0.13
   1   0  -9    0.46    0.47
   1   0  -9    0.22    0.47
  -3   0  10    5.94    1.12
  -3   0  10    4.80    1.04
  -3   0  10    6.00    1.32
  -3   0  10    4.12    0.92
  -3   0  10    4.86    0.70
   3   0 -10    5.60    1.24
   3   0 -10    5.24    1.13
   3   0 -10    5.46    0.84
   3   0 -10    6.75    1.27
   3   0 -10    4.37    1.07
  -5   0  11    3.72    1.08
  -5   0  11    3.55    1.58
  -5   0  11    1.96    0.85
  -5   0  11    2.16    0.94
   5   0 -11    2.70    1.05
   5   0 -11    3.28    0.76
   5   0 -11    3.34    1.01
   6   1   5   -0.43    0.60
   6   1   5    1.13    0.79
   6   1   5    2.26    0.92
   6   1   5    0.41    0.68
  -6  -1  -5    2.45    1.10
  -6  -1  -5    0.88    0.88
   4   1   6    0.23    0.49
   4   1   6    0.33    0.49
   4   1   6    0.03    0.41
   4   1   6   -0.52    0.53
  -4  -1  -6    0.31    0.30
  -4  -1  -6   -1.12    0.74
  -4  -1  -6   -0.46    0.24
  -4  -1  -6   -0.39    0.57
  -4  -1  -6   -0.69    0.64
   2   1   7   -0.54    0.30
   2   1   7    0.00    0.35
   2   1   7    0.33    0.35
   2   1   7    0.89    0.58
   2   1   7    0.46    0.36
  -2  -1  -7   -0.28    0.36
  -2  -1  -7   -0.10    0.37
  -2  -1  -7    0.14    0.46
  -2  -1  -7    0.03    0.49
  -2  -1  -7    0.18    0.29
  -2  -1  -7    0.41    0.50
   0   1   8    0.23    0.29
   0   1   8    0.08    0.52
   0  -1  -8   -0.14    0.32
   0  -1  -8   -0.12    0.32
   0  -1  -8    0.13    0.46
   0  -1  -8    0.34    0.19
   0  -1  -8   -0.24    0.38
   0  -1  -8    0.37    0.36
  -2   1   9    3.87    0.87
  -2   1   9    4.56    0.99
  -2   1   9    3.88    0.82
  -2   1   9    3.39    0.88
   2  -1  -9    4.69    0.90
   2  -1  -9    4.13    0.63
   2  -1  -9    4.87    1.03
   2  -1  -9    4.70    0.99
   2  -1  -9    4.64    1.01
   2  -1  -9    4.30    0.89
   2  -1  -9    3.90    0.64
  -4   1  10    3.02    0.98
  -4   1  10    3.93    0.95
  -4   1  10    2.51    0.78
  -4   1  10    2.95    1.07
   4  -1 -10    2.08    0.69
   4  -1 -10    4.94    1.15
   4  -1 -10    4.33    0.95
  -6   1  11    0.10    0.74
  -6   1  11   -0.32    0.60
  -6   1  11   -0.05    0.76
  -6   1  11   -1.13    0.73
   6  -1 -11    1.38    0.77
   6  -1 -11    0.07    0.69
   6  -1 -11   -0.74    0.56
   6  -1 -11   -0.57    0.62
   5   2   5    1.27    0.82
   5   2   5    0.31    0.56
   5   2   5    1.31    0.78
   5   2   5   -0.06    0.71
  -5  -2  -5    0.19    0.73
  -5  -2  -5    0.87    0.81
  -5  -2  -5    0.39    0.46
  -5  -2  -5    0.59    0.55
   3   2   6    1.11    0.61
   3   2   6    1.21    0.66
   3   2   6    0.88    0.56
  -3  -2  -6    1.18    0.66
  -3  -2  -6    1.23    0.59
  -3  -2  -6    1.63    0.66
  -3  -2  -6    1.29    0.45
  -3  -2  -6    0.86    0.50
   1   2   7   20.74    1.83
   1   2   7   18.16    1.89
   1   2   7   20.07    1.39
   1   2   7   19.63    1.64
   1   2   7   19.29    1.47
  -1  -2  -7   19.41    1.48
  -1  -2  -7   20.02    1.70
  -1  -2  -7   19.21    1.71
  -1  -2  -7   17.97    1.59
  -1  -2  -7   16.45    1.26
  -1  -2  -7   19.25    1.75
  -1   2   8    3.45    0.82
  -1   2   8    3.75    0.90
  -1   2   8    4.12    0.80
   1  -2  -8    4.42    0.98
   1  -2  -8    4.00    0.63
   1  -2  -8    4.37    1.02
   1  -2  -8    4.80    0.89
   1  -2  -8    3.84    0.54
   1  -2  -8    4.26    0.91
   1  -2  -8    4.04    0.92
  -3   2   9    1.67    0.76
  -3   2   9    1.92    0.70
  -3   2   9    1.64    0.78
  -3   2   9    2.86    0.68
  -3   2   9    2.75    0.62
   3  -2  -9    2.11    0.81
   3  -2  -9    1.23    0.63
   3  -2  -9    2.00    0.60
   3  -2  -9    1.85    0.59
  -5   2  10    0.51    0.55
  -5   2  10   -0.23    0.50
  -5   2  10    0.66    0.53
  -5   2  10    0.07    0.62
   5  -2 -10    2.48    1.05
   5  -2 -10    0.84    0.50
   5  -2 -10    1.34    0.77
   5  -2 -10    0.38    0.51
  -7   2  11   -0.20    0.81
  -7   2  11    2.52    0.97
  -7   2  11    1.00    1.01
  -7   2  11    0.13    0.78
   7  -2 -11   -0.04    0.72
   7  -2 -11   -0.27    0.55
   7  -2 -11    0.67    0.97
   7  -2 -11    0.41    0.92
   6   3   4    0.44    0.88
   6   3   4    1.98    0.87
   6   3   4    0.52    0.58
   6   3   4    0.23    0.76
  -6  -3  -4    1.04    1.00
  -6  -3  -4    0.20    0.73
  -6  -3  -4    1.72    1.09
   4   3   5    1.12    0.62
   4   3   5    1.44    0.83
   4   3   5    0.72    0.56
   4   3   5    1.32    0.71
  -4  -3  -5    1.34    0.64
  -4  -3  -5    0.50    0.52
  -4  -3  -5    1.00    0.65
  -4  -3  -5    1.98    0.89
   2   3   6   16.52    1.62
   2   3   6   15.32    1.41
  -2  -3  -6   16.07    1.62
  -2  -3  -6   21.25    1.66
  -2  -3  -6   14.33    1.55
  -2  -3  -6   17.14    1.71
   0   3   7   -0.04    0.37
   0   3   7    1.59    0.53
   0   3   7    0.13    0.62
   0   3   7   -0.23    0.23
   0  -3  -7   -0.13    0.38
   0  -3  -7    0.46    0.38
   0  -3  -7    0.19    0.47
   0  -3  -7    0.15    0.45
   0  -3  -7    0.21    0.43
   0  -3  -7    0.20    0.35
  -2   3   8    7.77    1.30
  -2   3   8    5.95    0.87
  -2   3   8    9.87    1.64
  -2   3   8    8.55    1.40
   2  -3  -8    7.32    0.79
   2  -3  -8    6.35    0.76
   2  -3  -8    8.19    1.35
   2  -3  -8    7.57    1.09
   2  -3  -8    6.93    0.83
   2  -3  -8    9.23    1.45
  -4   3   9    0.31    0.65
  -4   3   9    0.43    0.71
  -4   3   9    0.35    0.43
  -4   3   9    0.35    0.38
  -4   3   9    0.30    0.60
   4  -3  -9    0.27    0.42
   4  -3  -9    0.58    0.64
   4  -3  -9    1.23    0.64
   4  -3  -9    0.29    0.54
  -6   3  10   -0.72    0.48
  -6   3  10   -0.61    0.63
  -6   3  10    0.06    0.50
  -6   3  10   -0.58    0.76
   6  -3 -10   -0.08    0.55
   6  -3 -10   -0.80    0.57
   6  -3 -10    0.92    0.85
   6  -3 -10    0.14    0.73
   5   4   4   -0.20    0.73
   5   4   4    0.07    0.68
   5   4   4    0.85    0.63
   5   4   4    1.12    0.81
  -5  -4  -4   -0.42    0.81
  -5  -4  -4    0.44    0.83
  -5  -4  -4    0.34    0.79
  -5  -4  -4   -0.27    0.82
   3   4   5    0.93    0.70
   3   4   5    0.71    0.67
   3   4   5   -0.08    0.56
   3   4   5    1.06    0.69
  -3  -4  -5    0.92    0.81
  -3  -4  -5    0.22    0.58
  -3  -4  -5    0.79    0.86
   1   4   6    1.97    0.77
   1   4   6    1.61    0.76
   1   4   6    1.18    0.63
  -1  -4  -6    1.50    0.71
  -1  -4  -6    0.51    0.54
  -1  -4  -6    1.16    0.63
  -1  -4  -6    2.20    0.75
  -1   4   7    9.27    1.21
  -1   4   7   12.01    1.35
  -1   4   7    8.38    0.87
  -1   4   7   12.31    1.47
   1  -4  -7   10.11    0.98
   1  -4  -7    8.75    1.13
   1  -4  -7    9.92    1.14
   1  -4  -7   12.21    1.26
  -3   4   8   10.28    1.76
  -3   4   8    8.19    1.14
  -3   4   8    8.25    0.75
  -3   4   8    8.86    1.23
  -3   4   8   10.09    1.30
  -3   4   8    8.30    0.76
   3  -4  -8    9.34    1.02
   3  -4  -8    9.68    1.23
   3  -4  -8    8.93    1.14
   3  -4  -8    8.62    1.12
  -5   4   9    4.08    1.02
  -5   4   9    5.34    1.13
  -5   4   9    2.36    0.91
  -5   4   9    2.84    0.49
  -5   4   9    2.97    0.49
   5  -4  -9    3.07    0.90
   5  -4  -9    4.06    1.13
   5  -4  -9    3.85    0.97
   5  -4  -9    1.90    0.78
  -7   4  10   -0.53    0.75
  -7   4  10    0.09    0.73
  -7   4  10   -1.40    0.80
   7  -4 -10    0.46    0.59
   7  -4 -10    1.43    1.02
   7  -4 -10    0.10    0.76
   7  -4 -10    0.14    0.70
   4   5   4    1.49    0.88
   4   5   4   -0.50    0.71
   4   5   4    0.96    0.63
  -4  -5  -4    1.07    0.84
  -4  -5  -4    0.27    0.73
  -4  -5  -4   -0.13    0.75
  -4  -5  -4    0.01    0.82
   2   5   5    0.75    0.58
   2   5   5    1.63    0.72
   2   5   5    2.33    0.87
   2   5   5    2.20    0.73
  -2  -5  -5    1.40    0.78
  -2  -5  -5    0.92    0.71
  -2  -5  -5    2.54    0.80
  -2  -5  -5    2.71    0.86
   0   5   6   -0.27    0.55
   0   5   6    0.56    0.58
   0   5   6    0.70    0.59
   0   5   6    0.97    0.68
   0  -5  -6    0.20    0.62
   0  -5  -6    0.03    0.49
   0  -5  -6   -0.02    0.35
   0  -5  -6    0.47    0.48
  -2   5   7    3.18    1.03
  -2   5   7    4.12    1.06
  -2   5   7    2.60    0.79
  -2   5   7    2.15    0.54
  -2   5   7    3.55    0.94
   2  -5  -7    3.51    0.57
   2  -5  -7    3.99    1.08
   2  -5  -7    3.46    0.94
   2  -5  -7    3.41    0.85
  -4   5   8   11.37    1.35
  -4   5   8   10.25    1.36
  -4   5   8    9.53    1.28
   4  -5  -8   11.00    1.26
   4  -5  -8    5.38    1.45
   4  -5  -8    9.57    1.16
  -6   5   9    5.79    1.35
  -6   5   9    7.16    1.61
  -6   5   9    5.89    1.32
   6  -5  -9    3.79    1.21
   6  -5  -9    7.35    1.48
   6  -5  -9    4.09    1.09
   6  -5  -9    4.82    1.04
   3   6   4    0.99    0.72
   3   6   4    0.52    0.67
   3   6   4    0.62    0.70
   3   6   4   -0.34    0.72
  -3  -6  -4    0.83    0.67
  -3  -6  -4   -0.18    0.64
  -3  -6  -4   -0.15    0.62
  -3  -6  -4   -0.31    0.70
   1   6   5    5.28    1.19
   1   6   5    5.50    1.15
   1   6   5    5.45    1.27
   1   6   5    5.96    1.20
   1   6   5    4.24    1.17
  -1  -6  -5    4.83    1.05
  -1  -6  -5    5.83    1.09
  -1  -6  -5    6.14    1.22
  -1  -6  -5    4.91    1.13
  -1   6   6    1.80    0.77
  -1   6   6    2.14    0.64
  -1   6   6    1.43    0.76
  -1   6   6    2.29    0.95
  -1   6   6    2.22    0.77
  -1   6   6    4.00    0.94
   1  -6  -6    2.66    0.85
   1  -6  -6    1.41    0.72
   1  -6  -6    2.08    0.73
   1  -6  -6    3.42    0.89
   1  -6  -6    2.74    0.64
  -3   6   7    5.84    1.24
  -3   6   7    7.01    1.39
  -3   6   7    5.61    1.25
  -3   6   7    6.53    1.25
   3  -6  -7    6.66    1.21
   3  -6  -7    4.33    1.12
   3  -6  -7    4.91    1.14
   3  -6  -7    3.41    0.98
  -5   6   8   -0.16    0.67
  -5   6   8    0.71    0.45
  -5   6   8    0.75    0.59
  -5   6   8    1.38    0.96
   5  -6  -8   -0.63    0.69
   5  -6  -8    0.91    0.74
   5  -6  -8    0.72    0.68
   5  -6  -8    0.22    0.69
  -7   6   9   -0.79    0.43
  -7   6   9    0.18    0.85
  -7   6   9    1.16    0.76
   7  -6  -9   -0.47    0.58
   7  -6  -9   -0.09    0.87
   7  -6  -9    0.99    0.83
   4   7   3   -0.54    1.10
  -4  -7  -3    2.25    1.25
  -4  -7  -3    1.21    0.88
   2   7   4   -1.41    0.54
   2   7   4   -1.09    0.52
   2   7   4    0.04    0.73
   2   7   4    1.00    0.81
  -2  -7  -4   -0.55    0.66
  -2  -7  -4   -0.32    1.10
  -2  -7  -4    0.14    0.59
  -2  -7  -4   -0.78    0.73
   0   7   5    2.33    0.91
   0   7   5    1.57    0.65
   0   7   5    0.30    0.76
   0   7   5    0.82    0.77
   0   7   5    1.14    0.73
   0  -7  -5    0.99    0.56
   0  -7  -5    1.18    0.63
   0  -7  -5    1.13    0.63
   0  -7  -5    0.45    0.70
  -2   7   6    0.91    0.67
  -2   7   6    0.53    0.40
  -2   7   6    0.75    0.58
  -2   7   6    0.30    0.64
  -2   7   6    0.96    0.58
  -2   7   6    0.72    0.77
   2  -7  -6    0.13    0.60
   2  -7  -6   -0.17    0.28
   2  -7  -6   -0.49    0.37
   2  -7  -6    0.32    0.57
  -4   7   7    4.34    1.16
  -4   7   7    5.91    1.50
  -4   7   7    4.37    1.15
  -4   7   7    4.62    1.23
   4  -7  -7    3.30    0.82
   4  -7  -7    4.87    1.33
   4  -7  -7    4.63    1.68
   4  -7  -7    5.00    1.28
  -6   7   8    0.92    0.80
  -6   7   8   -0.26    0.76
   6  -7  -8    0.35    0.67
   6  -7  -8    2.22    0.95
   6  -7  -8   -0.64    0.87
   3   8   3    0.50    1.58
   3   8   3   -0.58    0.88
  -3  -8  -3   -1.03    0.77
  -3  -8  -3    1.08    0.94
  -3  -8  -3    0.97    1.09
   1   8   4    0.31    0.68
   1   8   4    0.16    0.86
   1   8   4    0.97    0.77
   1   8   4    0.23    0.56
  -1  -8  -4    0.05    0.56
  -1  -8  -4    0.90    0.73
  -1  -8  -4    0.80    0.77
  -1   8   5   -1.09    0.48
  -1   8   5    0.26    0.61
  -1   8   5    1.18    0.98
  -1   8   5    0.67    0.70
  -1   8   5    0.77    0.63
   1  -8  -5    0.30    0.57
   1  -8  -5    1.40    0.65
   1  -8  -5   -0.33    0.62
   1  -8  -5   -0.24    0.58
  -3   8   6   -0.40    0.68
  -3   8   6    0.01    0.60
  -3   8   6    1.13    0.92
  -3   8   6    0.26    0.57
   3  -8  -6   -0.57    0.48
   3  -8  -6   -0.44    0.44
   3  -8  -6   -0.22    0.69
  -5   8   7   -0.94    0.58
  -5   8   7    0.04    0.85
  -5   8   7    1.34    0.79
   5  -8  -7    0.17    0.80
   5  -8  -7    1.44    0.82
   5  -8  -7    0.46    0.98
  -7   8   8   -0.17    0.95
  -7   8   8   -1.32    0.86
  -7   8   8    1.49    0.98
   7  -8  -8   -1.28    0.92
   7  -8  -8    0.19    0.68
   0   9   4   -0.35    0.74
   0   9   4    0.81    0.99
   0   9   4    1.08    0.83
   0   9   4    0.15    0.68
   0  -9  -4    0.56    0.71
   0  -9  -4    1.90    1.05
   0  -9  -4    1.70    1.05
  -2   9   5    0.04    0.74
  -2   9   5   -0.75    0.66
  -2   9   5    0.39    0.65
   2  -9  -5    0.56    0.53
   2  -9  -5    2.20    1.09
   2  -9  -5   -0.15    0.77
   2  -9  -5   -0.43    0.38
  -4   9   6    1.51    0.98
  -4   9   6   -0.37    0.55
  -4   9   6    1.24    0.75
   4  -9  -6   -0.24    0.50
   4  -9  -6    0.23    0.63
   4  -9  -6   -0.43    0.89
  -6   9   7    0.91    0.77
  -6   9   7    2.04    0.99
  -6   9   7    0.73    0.72
   6  -9  -7    1.89    1.21
   6  -9  -7    1.17    0.78
  -1  10   4   -0.64    0.56
  -1  10   4   -0.15    0.69
  -1  10   4    0.19    0.62
  -1  10   4    1.03    0.91
   1 -10  -4   -0.50    0.58
   1 -10  -4    0.06    0.76
   1 -10  -4   -0.37    0.93
  -3  10   5    8.39    1.66
  -3  10   5    4.92    1.22
  -3  10   5    5.62    1.17
  -3  10   5    6.91    1.36
   3 -10  -5    2.82    1.36
   3 -10  -5    6.62    1.63
   3 -10  -5    5.91    1.44
  -5  10   6   -1.67    0.97
  -5  10   6    0.27    0.82
   5 -10  -6   -1.27    0.66
   5 -10  -6    0.91    0.99
   3  -7  11    0.10    0.78
   3  -7  11    1.12    0.86
   3  -7  11    0.06    0.96
  -3   7 -11    0.62    0.95
  -3   7 -11    0.73    0.87
  -3   7 -11    0.04    0.63
  -3   7 -11   -0.48    0.78
   1  -7  12    2.74    0.97
   1  -7  12    2.56    1.28
  -1   7 -12    2.15    1.23
  -1   7 -12    2.60    0.93
  -1   7 -12    1.99    0.75
  -1   7 -12    3.74    1.29
   4  -6  10    3.34    1.12
   4  -6  10    2.30    1.33
  -4   6 -10    1.74    0.93
  -4   6 -10    1.66    0.81
  -4   6 -10    2.49    0.84
   2  -6  11    2.76    1.15
   2  -6  11    3.22    1.21
   2  -6  11    2.18    0.91
  -2   6 -11    1.93    0.79
  -2   6 -11    3.19    1.14
  -2   6 -11    0.98    0.81
  -2   6 -11    1.48    0.87
  -2   6 -11    1.10    0.69
   0  -6  12    2.45    1.03
   0  -6  12   -0.46    0.89
   0  -6  12    3.70    1.06
   0   6 -12    0.84    0.92
   0   6 -12    0.73    0.76
   0   6 -12    0.26    0.61
   5  -5   9    0.14    0.87
   5  -5   9   -0.63    0.62
  -5   5  -9   -0.22    0.53
  -5   5  -9   -0.10    0.67
  -5   5  -9    3.57    1.27
   3  -5  10   -1.01    0.72
   3  -5  10    0.77    0.77
  -3   5 -10    0.47    0.59
  -3   5 -10    0.28    0.77
  -3   5 -10   -0.58    0.52
  -3   5 -10   -0.07    0.68
  -3   5 -10   -0.33    0.64
   1  -5  11    4.64    1.24
   1  -5  11    6.93    1.58
   1  -5  11    5.61    1.39
  -1   5 -11    4.53    1.20
  -1   5 -11    4.04    1.11
  -1   5 -11    4.01    0.96
  -1   5 -11    6.90    1.45
  -1   5 -11    3.87    0.96
  -1  -5  12    0.35    0.91
  -1  -5  12   -0.52    0.69
  -1  -5  12    1.11    0.83
   1   5 -12   -0.36    0.59
   1   5 -12   -0.06    0.62
   1   5 -12    0.40    0.87
   6  -4   8    0.50    0.65
   6  -4   8    3.41    1.06
  -6   4  -8    0.18    0.76
  -6   4  -8    1.19    0.85
   4  -4   9   16.65    2.00
   4  -4   9   19.22    1.94
  -4   4  -9   14.48    1.57
  -4   4  -9   16.66    1.97
  -4   4  -9   14.36    1.74
  -4   4  -9   17.30    1.63
   2  -4  10   -0.36    0.63
   2  -4  10    1.14    0.75
  -2   4 -10    0.96    0.62
  -2   4 -10    0.38    0.46
  -2   4 -10    0.03    0.66
  -2   4 -10    0.06    0.66
  -2   4 -10    0.44    0.57
   0  -4  11    8.49    1.20
   0  -4  11    6.18    1.52
   0  -4  11    8.51    1.64
   0   4 -11    7.55    1.34
   0   4 -11    7.44    1.52
   0   4 -11    8.23    1.49
   0   4 -11    9.40    1.72
  -2  -4  12   -0.39    0.59
  -2  -4  12   -0.15    0.57
   2   4 -12    0.13    0.56
   2   4 -12    0.21    0.54
   2   4 -12   -1.12    0.61
   2   4 -12    0.06    0.47
   7  -3   7    0.23    0.74
   7  -3   7    0.67    0.70
   7  -3   7    0.27    0.58
  -7   3  -7    0.71    0.82
  -7   3  -7   -0.17    1.74
  -7   3  -7    0.40    0.96
   5  -3   8   -0.31    0.75
   5  -3   8   -0.18    0.35
   5  -3   8    1.42    0.85
  -5   3  -8    0.96    0.68
  -5   3  -8    0.19    0.59
  -5   3  -8   -0.50    1.13
  -5   3  -8   -0.41    0.80
   3  -3   9    5.75    1.33
   3  -3   9    5.54    0.62
   3  -3   9    4.17    1.15
   3  -3   9    7.29    1.49
  -3   3  -9    4.75    0.62
  -3   3  -9    7.10    1.45
  -3   3  -9    7.48    1.28
  -3   3  -9    6.82    1.33
   1  -3  10    0.11    0.70
   1  -3  10    0.71    0.62
  -1   3 -10    0.35    0.47
  -1   3 -10    0.56    0.48
  -1  -3  11    5.13    0.85
  -1  -3  11    4.46    1.18
  -1  -3  11    3.48    1.08
  -1  -3  11    4.30    1.18
   1   3 -11    5.93    1.14
   1   3 -11    5.56    1.27
   1   3 -11    6.61    1.27
   1   3 -11    3.21    0.98
   1   3 -11    3.43    1.06
  -3  -3  12   -0.59    0.98
  -3  -3  12    0.28    0.64
  -3  -3  12    0.57    0.76
   3   3 -12    0.74    0.58
   3   3 -12   -0.84    0.52
   3   3 -12    0.67    0.71
   3   3 -12    0.75    0.54
   6  -2   7    0.04    0.86
   6  -2   7    0.25    0.56
  -6   2  -7   -0.40    0.60
  -6   2  -7   -0.68    0.65
  -6   2  -7    1.12    1.17
   4  -2   8    2.33    0.88
   4  -2   8    1.01    0.51
   4  -2   8    0.89    0.82
  -4   2  -8    0.82    0.32
  -4   2  -8    1.32    0.68
  -4   2  -8    1.21    0.75
  -4   2  -8    0.53    0.60
  -4   2  -8    0.80    0.75
   2  -2   9    2.21    0.65
   2  -2   9    2.88    0.59
   2  -2   9    3.26    0.97
   2  -2   9    4.17    1.08
  -2   2  -9    2.89    0.72
  -2   2  -9    3.11    0.90
  -2   2  -9    2.60    0.66
  -2   2  -9    2.14    0.78
  -2   2  -9    3.12    0.98
   0  -2  10    6.21    0.85
   0  -2  10    7.12    1.42
   0  -2  10    6.79    1.37
   0   2 -10    8.55    1.46
   0   2 -10    6.99    1.39
   0   2 -10    7.90    1.07
   0   2 -10    8.04    1.32
  -2  -2  11    5.95    1.23
  -2  -2  11    9.00    1.53
  -2  -2  11    6.98    1.31
  -2  -2  11    6.43    1.36
  -2  -2  11    5.36    0.55
   2   2 -11    4.38    1.05
   2   2 -11    7.42    1.31
   2   2 -11    6.58    1.38
   2   2 -11    7.12    1.00
   2   2 -11    5.85    0.55
  -4  -2  12   -0.68    0.67
  -4  -2  12   -0.44    0.75
  -4  -2  12   -0.19    1.00
   4   2 -12    0.85    0.74
   4   2 -12   -0.30    0.45
   4   2 -12    0.62    0.63
   4   2 -12   -0.07    0.63
   7  -1   6    1.64    1.10
   7  -1   6    1.96    1.07
   7  -1   6    2.22    0.93
  -7   1  -6    1.74    0.94
  -7   1  -6    0.64    1.09
  -7   1  -6    2.13    1.12
   5  -1   7    0.87    0.53
   5  -1   7    1.13    0.72
   5  -1   7    1.87    0.83
   5  -1   7   -0.35    0.66
  -5   1  -7    2.98    0.88
  -5   1  -7    0.13    0.99
  -5   1  -7    1.33    0.81
  -5   1  -7   -0.66    0.50
  -5   1  -7    0.83    0.82
   3  -1   8    0.35    0.25
   3  -1   8   -0.45    0.46
   3  -1   8    0.14    0.53
   3  -1   8    0.67    0.50
   3  -1   8    0.59    0.17
  -3   1  -8    0.07    0.56
  -3   1  -8    1.10    0.29
  -3   1  -8    0.31    0.58
  -3   1  -8    0.39    0.18
  -3   1  -8    0.83    0.72
  -3   1  -8    2.07    0.87
   1  -1   9    1.08    0.54
   1  -1   9   -0.09    0.35
   1  -1   9    0.35    0.55
  -1   1  -9   -0.03    0.42
  -1   1  -9    0.22    0.57
  -1   1  -9   -0.35    0.43
  -1   1  -9    0.83    0.66
  -1   1  -9   -0.75    0.54
  -1  -1  10    0.54    0.58
  -1  -1  10    1.55    0.76
  -1  -1  10    1.81    0.56
  -1  -1  10    1.54    0.79
   1   1 -10    1.88    0.72
   1   1 -10    1.42    0.73
   1   1 -10    1.15    0.57
   1   1 -10    1.59    0.63
   1   1 -10    0.64    0.64
  -3  -1  11    4.59    1.21
  -3  -1  11    2.41    0.80
  -3  -1  11    3.48    0.97
  -3  -1  11    4.36    1.20
   3   1 -11    4.13    1.04
   3   1 -11    3.99    1.11
   3   1 -11    4.26    0.72
   3   1 -11    2.37    0.81
  -5  -1  12    0.77    0.82
  -5  -1  12   -1.02    0.69
  -5  -1  12    1.29    0.82
   5   1 -12    0.51    0.78
   5   1 -12   -0.49    0.60
   5   1 -12   -0.46    0.74
   5   1 -12    0.83    0.78
   6   0   6    2.59    0.90
   6   0   6    0.87    0.53
   6   0   6    0.78    0.70
  -6   0  -6    2.24    1.06
  -6   0  -6    2.49    1.26
   4   0   7    2.94    0.92
   4   0   7    2.13    0.62
   4   0   7    2.81    0.75
  -4   0  -7    3.70    0.76
  -4   0  -7    2.99    0.91
  -4   0  -7    3.48    0.93
  -4   0  -7    3.35    0.96
  -4   0  -7    2.96    1.08
   2   0   8   12.47    1.37
   2   0   8   11.67    1.16
   2   0   8   11.76    1.46
   2   0   8    9.63    0.94
  -2   0  -8   14.34    1.44
  -2   0  -8   10.95    1.00
  -2   0  -8    9.75    0.65
  -2   0  -8   11.65    0.71
  -2   0  -8   12.69    1.43
  -2   0  -8   12.21    1.33
  -2   0  -8   13.08    1.33
   0   0   9   -0.32    0.41
   0   0   9    0.05    0.57
   0   0   9    0.94    0.59
   0   0  -9   -0.44    0.45
   0   0  -9   -0.14    0.44
   0   0  -9   -0.39    0.50
   0   0  -9   -0.74    0.33
   0   0  -9   -0.50    0.49
  -2   0  10    3.22    0.84
  -2   0  10    3.04    0.87
  -2   0  10    3.91    1.01
  -2   0  10    4.24    0.93
   2   0 -10    3.43    0.47
   2   0 -10    2.81    0.79
   2   0 -10    2.78    0.91
   2   0 -10    2.79    0.73
   2   0 -10    3.09    0.40
   2   0 -10    2.71    0.79
   2   0 -10    2.64    0.73
  -4   0  11    1.45    0.68
  -4   0  11    3.76    0.97
  -4   0  11    2.42    0.95
   4   0 -11    1.44    0.60
   4   0 -11    1.79    0.88
   4   0 -11    1.47    0.74
  -6   0  12    2.77    1.07
  -6   0  12    2.89    0.99
  -6   0  12    7.44    1.45
   6   0 -12    2.21    1.18
   6   0 -12    2.92    0.94
   6   0 -12    1.02    1.02
   6   0 -12    3.34    1.17
   5   1   6    0.46    0.59
   5   1   6   -0.11    0.64
   5   1   6    0.36    0.71
   5   1   6   -0.62    0.42
  -5  -1  -6   -0.33    0.72
  -5  -1  -6    0.41    0.57
   3   1   7   14.22    1.47
   3   1   7   17.19    1.70
   3   1   7   16.65    1.27
   3   1   7   15.62    1.69
  -3  -1  -7   19.73    1.28
  -3  -1  -7   14.78    1.58
  -3  -1  -7   13.87    1.57
  -3  -1  -7   15.59    1.66
  -3  -1  -7   16.04    1.71
  -3  -1  -7   16.28    1.19
   1   1   8   15.08    1.47
   1   1   8   11.57    1.16
   1   1   8   12.96    1.32
   1   1   8   14.53    1.51
  -1  -1  -8   13.97    1.39
  -1  -1  -8   13.76    0.90
  -1  -1  -8   14.50    1.50
  -1  -1  -8   13.60    0.90
  -1  -1  -8   13.41    1.22
  -1  -1  -8   15.02    1.50
  -1  -1  -8   11.64    1.25
  -1   1   9    3.56    0.84
  -1   1   9    4.90    1.11
  -1   1   9    3.48    0.99
   1  -1  -9    4.08    0.93
   1  -1  -9    2.43    0.71
   1  -1  -9    3.25    0.94
   1  -1  -9    3.40    0.49
   1  -1  -9    2.78    0.43
   1  -1  -9    3.47    0.95
  -3   1  10    5.00    0.84
  -3   1  10    5.43    1.06
  -3   1  10    5.41    1.19
  -3   1  10    5.33    1.25
  -3   1  10    4.63    0.95
   3  -1 -10    4.63    0.88
   3  -1 -10    4.65    1.07
   3  -1 -10    5.83    1.21
   3  -1 -10    6.65    1.33
   3  -1 -10    5.58    0.85
  -5   1  11   -0.40    0.67
  -5   1  11    1.28    0.60
  -5   1  11   -0.06    0.62
  -5   1  11    0.64    0.66
   5  -1 -11   -0.20    0.57
   5  -1 -11   -0.41    0.61
   5  -1 -11    0.63    0.73
   5  -1 -11   -0.02    0.46
  -7   1  12    0.10    1.01
   6   2   5    2.92    1.03
   6   2   5    3.36    1.06
   6   2   5    4.00    1.13
  -6  -2  -5    2.44    1.14
  -6  -2  -5    6.54    1.50
  -6  -2  -5    3.49    1.06
   4   2   6    0.10    0.59
   4   2   6    0.59    0.53
   4   2   6    0.03    0.50
  -4  -2  -6    0.43    0.63
  -4  -2  -6    1.12    0.78
  -4  -2  -6   -0.36    0.70
  -4  -2  -6    0.31    0.44
  -4  -2  -6    0.26    0.50
   2   2   7    5.65    1.15
   2   2   7   11.46    1.24
   2   2   7    8.04    1.02
   2   2   7    8.31    0.88
   2   2   7    6.17    0.79
  -2  -2  -7    5.17    0.97
  -2  -2  -7    6.07    1.04
  -2  -2  -7    8.40    1.16
  -2  -2  -7    7.75    1.38
  -2  -2  -7    7.81    1.44
   0   2   8   26.67    2.29
   0   2   8   29.62    2.23
   0   2   8   30.27    2.29
   0  -2  -8   27.87    2.23
   0  -2  -8   30.25    1.81
   0  -2  -8   33.11    2.21
   0  -2  -8   29.47    2.33
   0  -2  -8   27.08    2.17
   0  -2  -8   26.73    1.75
   0  -2  -8   31.48    2.18
  -2   2   9    9.21    1.16
  -2   2   9    8.03    1.15
  -2   2   9    7.25    1.41
   2  -2  -9    9.21    1.21
   2  -2  -9    8.37    0.87
   2  -2  -9   10.09    1.20
   2  -2  -9    7.85    1.10
   2  -2  -9    9.27    0.97
   2  -2  -9    8.63    0.82
  -4   2  10    0.46    0.44
  -4   2  10    0.17    1.04
  -4   2  10    0.74    0.60
   4  -2 -10    1.35    0.66
   4  -2 -10    0.53    0.43
   4  -2 -10    0.42    0.78
   4  -2 -10    1.29    0.68
  -6   2  11    0.74    0.82
  -6   2  11    1.16    0.93
  -6   2  11   -0.49    0.83
  -6   2  11   -0.74    0.56
   6  -2 -11   -1.26    0.68
   6  -2 -11    0.08    0.75
   6  -2 -11    0.00    0.74
   6  -2 -11    0.12    0.70
   5   3   5    0.64    0.59
   5   3   5    0.48    0.64
  -5  -3  -5    2.81    0.95
  -5  -3  -5    0.39    0.73
  -5  -3  -5   -0.22    0.86
  -5  -3  -5    0.86    1.00
   3   3   6   11.86    1.40
   3   3   6   13.20    1.40
   3   3   6    9.80    1.34
   3   3   6   11.20    1.26
  -3  -3  -6   10.47    1.46
  -3  -3  -6   15.78    1.67
  -3  -3  -6   11.88    1.54
   1   3   7    0.40    0.69
   1   3   7   -0.33    0.30
   1   3   7    1.01    0.58
   1   3   7   -0.29    0.36
  -1  -3  -7   -0.05    0.44
  -1  -3  -7    0.24    0.52
  -1  -3  -7    0.71    0.60
  -1  -3  -7    0.32    0.38
  -1  -3  -7    0.58    0.43
  -1   3   8    7.94    1.12
  -1   3   8    8.12    1.10
  -1   3   8    6.66    1.21
  -1   3   8    7.30    0.89
   1  -3  -8    9.59    1.14
   1  -3  -8    7.53    0.85
   1  -3  -8    6.68    0.78
   1  -3  -8    9.75    1.10
   1  -3  -8    7.69    0.79
   1  -3  -8    9.54    1.54
  -3   3   9    0.39    0.52
  -3   3   9    0.94    0.77
  -3   3   9   -0.07    0.42
  -3   3   9    0.03    0.56
   3  -3  -9    0.83    0.37
   3  -3  -9    0.12    0.56
   3  -3  -9    0.11    0.41
   3  -3  -9   -0.57    0.43
   3  -3  -9    0.09    0.45
  -5   3  10   -0.33    0.61
  -5   3  10    0.30    0.53
  -5   3  10   -0.65    0.72
  -5   3  10   -0.10    0.49
  -5   3  10   -0.02    0.66
   5  -3 -10   -0.11    0.72
   5  -3 -10    0.14    0.64
   5  -3 -10    0.34    0.57
   5  -3 -10    0.12    0.43
  -7   3  11   -0.34    0.70
  -7   3  11    1.86    0.96
  -7   3  11    0.95    0.97
  -7   3  11    1.66    0.97
   7  -3 -11    0.28    0.78
   7  -3 -11    0.66    0.73
   7  -3 -11   -0.32    1.11
   7  -3 -11   -0.85    1.01
   4   4   5    0.56    0.70
   4   4   5   -0.22    0.53
   4   4   5   -0.40    0.57
   4   4   5   -1.21    0.62
  -4  -4  -5    0.50    0.52
  -4  -4  -5   -0.91    0.49
  -4  -4  -5   -0.13    0.60
   2   4   6   11.92    1.42
   2   4   6   10.67    1.37
   2   4   6   13.25    1.40
   2   4   6   12.05    1.24
  -2  -4  -6   12.15    1.26
  -2  -4  -6   13.22    1.48
  -2  -4  -6   11.05    1.37
  -2  -4  -6   11.15    1.55
   0   4   7   16.97    1.60
   0   4   7   16.69    1.42
   0   4   7   17.14    1.74
   0  -4  -7   18.47    1.58
   0  -4  -7   16.68    1.69
   0  -4  -7   15.46    1.34
   0  -4  -7   17.21    1.48
   0  -4  -7   16.66    1.62
  -2   4   8    7.45    1.44
  -2   4   8    6.85    1.28
  -2   4   8    8.30    1.20
  -2   4   8    7.39    1.56
  -2   4   8    5.21    0.69
   2  -4  -8    6.11    0.81
   2  -4  -8    5.91    0.70
   2  -4  -8    6.69    0.97
   2  -4  -8    7.42    1.30
   2  -4  -8    8.88    1.49
  -4   4   9    1.02    0.37
  -4   4   9    3.27    1.09
  -4   4   9    2.64    0.96
  -4   4   9    2.25    0.45
  -4   4   9    2.12    0.77
   4  -4  -9    1.57    0.66
   4  -4  -9    2.18    0.86
   4  -4  -9    1.74    0.76
  -6   4  10    2.05    0.89
  -6   4  10    3.20    1.19
  -6   4  10    1.42    0.91
  -6   4  10    1.11    0.46
   6  -4 -10    2.27    0.93
   6  -4 -10    1.39    0.85
   6  -4 -10    1.39    0.73
   6  -4 -10    2.65    0.84
   5   5   4   -1.85    0.77
   5   5   4    0.80    0.95
   5   5   4   -0.41    0.96
   5   5   4    0.26    0.87
  -5  -5  -4    0.26    0.68
  -5  -5  -4   -0.19    0.89
  -5  -5  -4    0.16    0.91
   3   5   5    0.09    0.67
   3   5   5    1.46    0.79
   3   5   5    0.14    0.70
   3   5   5    1.22    0.81
  -3  -5  -5    1.49    0.86
  -3  -5  -5    0.99    0.63
  -3  -5  -5    0.91    0.65
  -3  -5  -5   -0.04    0.69
   1   5   6    1.92    0.76
   1   5   6    2.78    0.90
   1   5   6    2.41    0.85
   1   5   6    3.54    0.96
  -1  -5  -6    1.77    0.78
  -1  -5  -6    2.75    0.81
  -1  -5  -6    1.77    0.59
  -1   5   7    0.16    0.66
  -1   5   7    0.01    0.52
  -1   5   7   -0.41    0.40
  -1   5   7   -0.78    0.57
  -1   5   7    0.61    0.54
  -1   5   7    0.13    0.51
   1  -5  -7    0.40    0.52
   1  -5  -7    0.34    0.42
   1  -5  -7    0.21    0.39
   1  -5  -7    0.04    0.44
   1  -5  -7   -0.07    0.46
  -3   5   8    0.41    0.64
  -3   5   8    1.11    0.78
  -3   5   8   -0.29    0.77
  -3   5   8    0.07    0.32
  -3   5   8    0.54    0.67
  -3   5   8    0.07    0.25
   3  -5  -8    0.43    0.55
   3  -5  -8    0.99    0.55
   3  -5  -8   -0.11    0.64
   3  -5  -8    0.56    0.53
  -5   5   9    1.93    0.94
  -5   5   9    3.55    1.12
  -5   5   9    1.85    0.90
   5  -5  -9    6.13    1.40
   5  -5  -9    4.05    1.13
   5  -5  -9    3.13    0.94
   5  -5  -9    3.33    0.94
  -7   5  10    2.14    1.11
  -7   5  10    3.53    1.28
  -7   5  10    1.97    0.98
   7  -5 -10    0.96    0.78
   7  -5 -10    1.13    0.86
   7  -5 -10    1.93    0.97
   4   6   4    1.01    1.12
   4   6   4   -0.06    0.71
   4   6   4   -0.28    0.99
  -4  -6  -4    0.61    0.88
  -4  -6  -4    1.49    1.12
   2   6   5   -0.36    0.63
   2   6   5   -0.26    0.72
   2   6   5   -0.19    0.81
   2   6   5   -0.04    0.62
  -2  -6  -5    0.55    0.66
  -2  -6  -5    0.81    0.84
  -2  -6  -5    0.36    0.61
  -2  -6  -5    0.40    0.75
   0   6   6    3.31    0.98
   0   6   6    2.03    0.75
   0   6   6    1.21    0.74
   0   6   6    1.93    0.86
   0   6   6    2.11    0.75
   0  -6  -6    0.80    0.53
   0  -6  -6    0.72    0.65
   0  -6  -6    1.98    0.85
  -2   6   7    4.53    0.63
  -2   6   7    3.53    1.03
  -2   6   7    4.97    1.21
  -2   6   7    3.97    1.11
  -2   6   7    4.11    1.00
   2  -6  -7    4.85    0.91
   2  -6  -7    5.09    1.00
   2  -6  -7    3.70    0.61
   2  -6  -7    5.89    1.18
   2  -6  -7    6.93    1.36
  -4   6   8    2.65    0.87
  -4   6   8    2.67    0.88
  -4   6   8    2.45    1.05
  -4   6   8    4.15    1.24
   4  -6  -8    2.62    0.76
   4  -6  -8    3.27    0.86
   4  -6  -8    2.94    1.14
   4  -6  -8    2.36    0.89
  -6   6   9    0.01    1.00
  -6   6   9   -0.42    0.65
   6  -6  -9   -0.56    0.67
   6  -6  -9    1.22    1.01
   6  -6  -9   -0.07    0.69
   3   7   4    1.38    0.92
   3   7   4    0.32    1.05
   3   7   4    0.11    0.89
   3   7   4    0.37    0.88
  -3  -7  -4    1.26    0.94
  -3  -7  -4    1.51    0.88
  -3  -7  -4    1.02    1.00
   1   7   5    3.23    0.96
   1   7   5    2.53    1.05
   1   7   5    2.83    1.25
   1   7   5    3.95    1.22
   1   7   5    2.49    0.91
  -1  -7  -5    2.76    1.08
  -1  -7  -5    3.06    1.01
  -1  -7  -5    1.72    0.67
  -1  -7  -5    2.42    1.09
  -1   7   6   -0.69    0.57
  -1   7   6   -0.89    0.59
  -1   7   6    0.18    0.66
  -1   7   6    0.96    0.72
  -1   7   6    0.04    0.57
  -1   7   6    1.16    0.72
   1  -7  -6    0.52    0.60
   1  -7  -6    0.18    0.51
   1  -7  -6    0.37    0.74
   1  -7  -6   -0.05    0.44
   1  -7  -6   -0.39    0.56
  -3   7   7    2.28    0.91
  -3   7   7    2.97    1.16
  -3   7   7    2.07    0.85
  -3   7   7    0.79    1.06
   3  -7  -7    2.88    1.07
   3  -7  -7    1.94    0.84
   3  -7  -7    1.98    0.94
   3  -7  -7    1.26    0.75
  -5   7   8    1.81    0.79
  -5   7   8    1.63    0.95
  -5   7   8    0.66    0.69
   5  -7  -8    2.52    1.22
   5  -7  -8    1.24    0.75
   5  -7  -8    2.25    0.96
  -7   7   9    1.12    0.92
  -7   7   9    0.84    1.11
  -7   7   9    1.19    1.01
   7  -7  -9    0.46    0.68
   7  -7  -9    0.32    0.97
   2   8   4    1.21    0.97
   2   8   4    2.73    1.35
   2   8   4    0.82    0.98
   2   8   4    1.23    0.91
  -2  -8  -4    0.48    0.81
  -2  -8  -4    1.71    0.97
  -2  -8  -4    1.70    0.96
   0   8   5   -0.69    0.58
   0   8   5    0.72    0.67
   0   8   5    0.48    0.83
   0   8   5    0.21    0.59
   0  -8  -5   -0.06    0.48
   0  -8  -5    0.54    0.58
   0  -8  -5    0.62    0.82
  -2   8   6    0.57    0.63
  -2   8   6    1.71    0.80
  -2   8   6    1.21    0.79
  -2   8   6    0.95    0.68
  -2   8   6    1.03    1.06
   2  -8  -6    2.51    0.52
   2  -8  -6    3.70    1.06
   2  -8  -6    1.92    0.80
   2  -8  -6    1.69    0.76
   2  -8  -6    0.46    0.80
  -4   8   7    1.25    0.76
  -4   8   7   -0.09    0.54
  -4   8   7   -1.01    0.40
   4  -8  -7    1.50    0.88
   4  -8  -7   -0.77    0.80
  -6   8   8    1.22    1.08
  -6   8   8   -0.39    0.70
  -6   8   8   -0.35    0.75
   6  -8  -8   -0.20    1.00
   6  -8  -8    1.45    0.90
   6  -8  -8    1.93    0.79
   1   9   4   -0.35    0.88
   1   9   4   -1.77    0.74
   1   9   4   -1.08    0.82
   1   9   4   -0.29    0.81
  -1  -9  -4    0.32    0.85
  -1  -9  -4    0.27    1.01
  -1  -9  -4   -0.83    0.94
  -1   9   5   -0.78    0.70
  -1   9   5    0.31    0.62
  -1   9   5    0.37    0.85
  -1   9   5    0.56    1.00
   1  -9  -5    0.36    0.90
   1  -9  -5   -1.27    0.65
   1  -9  -5    0.64    0.95
   1  -9  -5    0.58    0.59
  -3   9   6    1.85    0.93
  -3   9   6    1.98    0.80
  -3   9   6    2.30    0.90
   3  -9  -6    2.43    0.90
   3  -9  -6    0.13    0.90
   3  -9  -6    1.10    0.92
  -5   9   7   -0.35    0.67
  -5   9   7    0.09    0.92
  -5   9   7   -0.34    0.43
   5  -9  -7   -0.83    0.84
   5  -9  -7   -0.63    1.10
   5  -9  -7   -1.08    0.90
  -2  10   5    0.33    0.88
  -2  10   5    3.40    1.33
  -2  10   5   -0.34    0.65
  -2  10   5    0.37    0.91
   2 -10  -5    2.17    1.30
   2 -10  -5   -1.28    0.80
   2 -10  -5    1.63    1.01
  -4  10   6    1.90    0.84
  -4  10   6    0.11    1.07
  -4  10   6    2.44    1.16
   4 -10  -6    2.68    1.08
   4 -10  -6   -0.04    0.82
   4 -10  -6    1.94    1.14
   3  -6  11    0.21    0.91
   3  -6  11    0.75    0.96
  -3   6 -11    1.58    1.22
  -3   6 -11   -0.49    0.71
  -3   6 -11    0.95    0.82
   1  -6  12    4.23    1.25
   1  -6  12    1.12    1.22
  -1   6 -12    0.91    0.77
  -1   6 -12    2.76    0.95
  -1   6 -12    3.09    1.38
   4  -5  10    1.58    0.81
   4  -5  10    0.22    0.91
  -4   5 -10    0.94    0.85
  -4   5 -10    0.64    0.76
  -4   5 -10    1.32    0.71
   2  -5  11    0.72    0.93
   2  -5  11   -0.21    0.79
  -2   5 -11    0.20    0.75
  -2   5 -11   -0.36    0.54
  -2   5 -11    0.14    0.60
  -2   5 -11   -0.77    0.71
  -2   5 -11   -1.44    0.85
   0  -5  12    0.62    0.80
   0  -5  12    0.40    0.68
   0  -5  12    0.57    0.96
   0   5 -12   -0.69    0.75
   0   5 -12    0.22    0.71
   0   5 -12   -0.21    0.90
   0   5 -12   -0.38    0.62
  -2  -5  13   -0.83    0.74
  -2  -5  13    1.36    0.75
   2   5 -13    0.73    0.79
   2   5 -13   -0.07    0.82
   5  -4   9    0.27    0.55
   5  -4   9    0.04    0.70
  -5   4  -9    0.63    0.67
  -5   4  -9   -0.35    0.73
  -5   4  -9   -0.77    0.62
   3  -4  10    1.91    0.98
   3  -4  10    0.70    0.73
  -3   4 -10    1.51    0.90
  -3   4 -10    0.45    0.52
  -3   4 -10    0.43    0.57
  -3   4 -10    1.75    0.88
  -3   4 -10   -0.48    0.81
   1  -4  11    1.68    0.87
   1  -4  11    2.70    0.96
  -1   4 -11    1.11    0.67
  -1   4 -11    1.51    0.71
  -1   4 -11    1.46    0.96
  -1   4 -11    0.44    0.79
  -1   4 -11    1.08    0.81
  -1  -4  12    5.41    1.28
  -1  -4  12    5.85    1.37
  -1  -4  12    4.91    1.31
   1   4 -12    6.70    1.33
   1   4 -12    5.89    1.31
   1   4 -12    5.17    1.39
   1   4 -12    6.80    1.54
  -3  -4  13    0.64    0.87
  -3  -4  13    1.79    1.06
  -3  -4  13   -1.71    0.94
   3   4 -13   -1.24    0.78
   3   4 -13    0.59    0.78
  -6   3  -8    0.71    1.04
   4  -3   9    0.67    0.61
  -4   3  -9    1.11    0.91
  -4   3  -9   -0.04    0.83
  -4   3  -9    0.25    0.64
  -4   3  -9    1.20    0.74
   2  -3  10   -0.54    0.47
   2  -3  10   -1.59    0.59
   2  -3  10    0.50    0.55
  -2   3 -10   -0.55    0.59
  -2   3 -10    0.26    0.53
  -2   3 -10    0.43    0.63
  -2   3 -10    0.11    0.62
   0  -3  11    5.43    1.19
   0  -3  11    4.33    1.10
   0  -3  11    5.49    1.21
   0   3 -11    3.70    1.04
   0   3 -11    2.80    0.96
   0   3 -11    4.07    1.06
   0   3 -11    6.74    1.22
   0   3 -11    4.46    1.10
  -2  -3  12    1.17    0.80
  -2  -3  12    2.02    0.90
  -2  -3  12    0.27    0.81
   2   3 -12    1.52    0.96
   2   3 -12    0.57    0.61
   2   3 -12    0.97    0.73
  -4  -3  13   -0.58    0.67
  -4  -3  13   -2.27    0.87
  -4  -3  13   -0.56    0.78
   4   3 -13   -0.25    0.67
   4   3 -13    0.24    0.93
   4   3 -13   -1.32    0.77
   5  -2   8    1.42    0.92
   5  -2   8    0.17    0.42
   5  -2   8    0.35    0.73
  -5   2  -8   -0.78    0.66
  -5   2  -8    1.06    0.72
   3  -2   9    3.30    0.71
   3  -2   9    3.22    1.12
   3  -2   9    4.13    1.14
   3  -2   9    2.62    0.53
  -3   2  -9    3.51    1.04
  -3   2  -9    3.32    0.58
  -3   2  -9    3.54    1.14
  -3   2  -9    2.99    0.89
  -3   2  -9    3.84    1.03
   1  -2  10    8.72    1.51
   1  -2  10    6.58    0.86
  -1   2 -10    4.60    1.13
  -1   2 -10    5.96    0.82
  -1   2 -10    4.22    0.98
  -1  -2  11    7.36    0.99
  -1  -2  11    6.37    1.38
  -1  -2  11    8.96    1.26
  -1  -2  11    8.12    1.17
   1   2 -11   10.71    1.32
   1   2 -11    9.56    1.20
   1   2 -11    8.31    1.15
   1   2 -11    8.38    1.50
   1   2 -11   11.39    1.33
  -3  -2  12    8.07    1.52
  -3  -2  12    6.19    1.42
  -3  -2  12    8.84    1.56
   3   2 -12    5.18    1.26
   3   2 -12    7.08    1.43
   3   2 -12    5.85    0.77
   3   2 -12    7.67    1.56
  -5  -2  13    0.25    0.84
  -5  -2  13    1.02    0.93
  -5  -2  13    0.77    1.00
   5   2 -13    0.21    0.78
   5   2 -13    0.42    0.75
   5   2 -13    0.74    0.97
   6  -1   7   -0.17    0.84
   6  -1   7   -0.83    0.55
  -6   1  -7    0.35    0.90
  -6   1  -7    0.44    0.76
  -6   1  -7   -0.61    0.84
   4  -1   8    0.81    0.80
   4  -1   8    0.84    0.45
   4  -1   8    0.87    0.59
   4  -1   8    1.95    0.92
  -4   1  -8    0.44    0.45
  -4   1  -8    1.07    0.96
  -4   1  -8    1.34    0.62
  -4   1  -8    0.70    0.57
   2  -1   9    3.33    0.86
   2  -1   9    2.36    1.17
   2  -1   9    4.36    1.18
   2  -1   9    4.84    0.85
  -2   1  -9    3.45    1.03
  -2   1  -9    4.16    0.89
  -2   1  -9    4.40    0.63
  -2   1  -9    3.41    1.11
  -2   1  -9    5.39    1.20
   0  -1  10    3.29    0.76
   0  -1  10    4.32    1.07
   0  -1  10    3.00    0.86
   0   1 -10    3.36    0.93
   0   1 -10    3.83    0.95
   0   1 -10    3.12    0.83
   0   1 -10    2.44    0.92
   0   1 -10    3.68    0.98
  -2  -1  11   10.21    1.34
  -2  -1  11   10.54    1.68
  -2  -1  11   11.38    1.49
  -2  -1  11    8.92    1.07
   2   1 -11    7.84    0.83
   2   1 -11    9.36    0.72
   2   1 -11    9.62    1.25
   2   1 -11   10.39    1.31
   2   1 -11    8.20    1.21
   2   1 -11    9.41    1.33
   2   1 -11    9.74    1.25
  -4  -1  12    0.52    0.86
  -4  -1  12    0.32    0.81
  -4  -1  12   -0.32    0.61
  -4  -1  12    0.70    0.65
   4   1 -12   -1.46    0.66
   4   1 -12    0.64    0.75
   4   1 -12    0.28    0.53
   4   1 -12    1.10    0.63
   5   0   7    0.80    0.65
   5   0   7    0.32    0.68
   5   0   7    0.90    0.74
   5   0   7    1.83    0.90
  -5   0  -7    1.71    0.68
  -5   0  -7    0.66    0.96
  -5   0  -7    1.25    0.89
   3   0   8   -0.07    0.59
   3   0   8   -0.34    0.34
   3   0   8    0.41    0.29
   3   0   8    0.31    0.50
  -3   0  -8    2.11    0.88
  -3   0  -8    0.36    0.32
  -3   0  -8   -0.28    0.42
  -3   0  -8    0.19    0.31
  -3   0  -8    0.45    0.51
  -3   0  -8    0.49    0.68
   1   0   9    7.56    1.41
   1   0   9    4.65    1.07
   1   0   9    5.32    0.97
  -1   0  -9    8.76    1.45
  -1   0  -9    7.10    1.28
  -1   0  -9    6.56    1.32
  -1   0  -9    6.65    1.18
  -1   0  10    1.13    0.72
  -1   0  10   -0.22    0.56
  -1   0  10    0.51    0.41
   1   0 -10    0.94    0.63
   1   0 -10    1.02    0.70
   1   0 -10    2.14    0.69
   1   0 -10    3.24    0.70
   1   0 -10    0.54    0.64
  -3   0  11    3.21    0.90
  -3   0  11    2.26    1.35
  -3   0  11    1.76    0.79
  -3   0  11    2.65    0.77
   3   0 -11    4.99    1.31
   3   0 -11    1.50    0.85
   3   0 -11    2.32    0.52
   3   0 -11    1.93    0.98
  -5   0  12   -0.17    0.72
  -5   0  12    1.02    0.81
  -5   0  12    1.59    0.96
  -5   0  12   -0.69    0.66
   5   0 -12    0.20    0.55
   5   0 -12    2.77    1.12
   5   0 -12   -0.22    0.80
   5   0 -12    1.09    0.80
   6   1   6   -0.38    0.62
   6   1   6    0.55    0.76
   6   1   6    1.27    0.78
  -6  -1  -6   -0.17    0.69
  -6  -1  -6    0.77    1.00
  -6  -1  -6    0.92    0.79
   4   1   7    2.89    0.90
   4   1   7    3.96    1.14
   4   1   7    2.92    1.09
   4   1   7    1.46    0.60
  -4  -1  -7    2.76    0.46
  -4  -1  -7    1.79    0.75
  -4  -1  -7    1.68    1.00
  -4  -1  -7    2.16    0.49
   2   1   8    6.30    1.24
   2   1   8    6.62    0.64
   2   1   8    5.90    0.91
   2   1   8    7.73    1.48
   2   1   8    6.17    1.12
  -2  -1  -8    7.90    1.39
  -2  -1  -8    5.32    0.75
  -2  -1  -8    4.57    0.57
  -2  -1  -8    6.68    1.24
  -2  -1  -8    8.72    1.45
  -2  -1  -8    5.89    1.18
   0   1   9    5.50    1.24
   0   1   9    6.07    0.88
   0   1   9    5.49    1.25
   0  -1  -9    4.90    1.08
   0  -1  -9    6.55    1.25
   0  -1  -9    6.02    1.08
   0  -1  -9    6.73    1.31
   0  -1  -9    7.26    0.97
  -2   1  10    0.53    0.54
  -2   1  10   -0.52    0.51
  -2   1  10   -0.02    0.49
  -2   1  10    0.11    0.45
   2  -1 -10   -0.44    0.34
   2  -1 -10    0.14    0.40
   2  -1 -10   -0.31    0.63
   2  -1 -10   -0.19    0.22
   2  -1 -10   -0.91    0.45
   2  -1 -10    0.81    0.40
   2  -1 -10   -0.41    0.58
  -4   1  11    0.38    0.57
  -4   1  11    0.60    0.86
  -4   1  11   -0.05    0.64
  -4   1  11    0.55    0.60
   4  -1 -11    0.48    0.71
   4  -1 -11   -0.03    0.49
   4  -1 -11    0.48    0.65
  -6   1  12    0.19    0.71
  -6   1  12   -0.38    0.80
  -6   1  12   -0.80    0.80
  -6   1  12    0.18    0.95
   6  -1 -12   -0.07    0.83
   6  -1 -12    0.72    0.93
   6  -1 -12   -0.28    0.69
   6  -1 -12   -0.13    0.68
   5   2   6    0.15    0.60
   5   2   6   -0.53    0.75
   5   2   6    0.19    0.60
   5   2   6   -0.53    0.59
  -5  -2  -6   -0.93    0.75
  -5  -2  -6   -0.70    0.39
  -5  -2  -6    0.40    0.70
   3   2   7   11.76    1.38
   3   2   7   11.25    1.35
   3   2   7   13.03    1.49
  -3  -2  -7   10.39    0.99
  -3  -2  -7   10.25    1.44
  -3  -2  -7   10.43    1.31
  -3  -2  -7   11.40    1.42
  -3  -2  -7   11.07    1.11
   1   2   8   12.90    1.29
   1   2   8   11.78    1.46
   1   2   8   13.84    1.52
   1   2   8   13.62    1.01
  -1  -2  -8   11.44    1.28
  -1  -2  -8   11.85    1.42
  -1  -2  -8   11.41    0.94
  -1  -2  -8   10.87    0.93
  -1  -2  -8   10.84    1.37
  -1  -2  -8   12.81    1.19
  -1   2   9    0.76    0.73
  -1   2   9    1.28    0.63
  -1   2   9    1.39    0.76
   1  -2  -9    0.74    0.48
   1  -2  -9    1.65    0.43
   1  -2  -9    1.21    0.56
   1  -2  -9    1.14    0.63
   1  -2  -9   -0.01    0.64
   1  -2  -9    0.50    0.36
  -3   2  10    5.67    1.03
  -3   2  10    6.08    1.19
  -3   2  10    4.64    1.12
  -3   2  10    4.74    1.32
   3  -2 -10    6.66    1.33
   3  -2 -10    6.39    1.20
   3  -2 -10    6.10    0.90
   3  -2 -10    6.48    1.32
   3  -2 -10    4.81    0.92
  -5   2  11   -0.02    0.58
  -5   2  11   -0.02    0.69
  -5   2  11    0.82    0.81
  -5   2  11   -0.42    0.53
   5  -2 -11   -0.18    0.48
   5  -2 -11    0.00    0.55
   5  -2 -11   -0.53    0.59
   5  -2 -11    0.26    0.74
  -7   2  12    1.39    1.18
   4   3   6    1.20    0.72
   4   3   6    1.62    0.84
   4   3   6    1.30    0.74
   4   3   6    0.61    0.85
  -4  -3  -6    0.49    0.79
  -4  -3  -6    1.86    0.86
  -4  -3  -6    2.17    0.83
  -4  -3  -6    1.34    0.95
   2   3   7    0.33    0.49
   2   3   7    2.45    0.86
   2   3   7    1.12    0.52
   2   3   7    0.40    0.64
  -2  -3  -7    0.21    0.53
  -2  -3  -7    1.49    0.48
  -2  -3  -7    1.87    0.78
   0   3   8    6.06    1.33
   0   3   8    5.47    0.84
   0   3   8    4.43    1.14
   0   3   8    5.06    1.07
   0  -3  -8    4.75    1.05
   0  -3  -8    5.18    0.68
   0  -3  -8    5.93    1.13
   0  -3  -8    4.03    1.04
   0  -3  -8    5.05    0.65
   0  -3  -8    5.87    1.02
  -2   3   9    4.64    1.03
  -2   3   9    3.84    0.72
  -2   3   9    3.66    1.21
  -2   3   9    4.44    1.07
   2  -3  -9    2.91    0.71
   2  -3  -9    4.40    0.99
   2  -3  -9    4.23    1.03
   2  -3  -9    3.88    0.80
   2  -3  -9    3.93    0.75
   2  -3  -9    5.52    1.15
  -4   3  10    2.66    1.05
  -4   3  10    3.60    0.99
  -4   3  10    3.01    0.72
  -4   3  10    4.27    1.17
  -4   3  10    2.77    0.72
   4  -3 -10    1.98    0.67
   4  -3 -10    4.90    1.11
   4  -3 -10    2.06    0.82
   4  -3 -10    2.89    1.10
  -6   3  11   -0.46    0.73
  -6   3  11    1.50    0.95
   6  -3 -11    0.80    1.04
   6  -3 -11   -1.12    0.57
   6  -3 -11    0.81    0.60
   5   4   5   -0.45    0.77
   5   4   5    1.10    0.99
   5   4   5   -0.37    0.60
   5   4   5   -0.57    0.78
  -5  -4  -5   -1.68    0.86
  -5  -4  -5   -0.14    0.93
  -5  -4  -5    0.28    0.89
  -5  -4  -5   -0.54    0.95
   3   4   6    2.60    0.84
   3   4   6    2.32    1.12
   3   4   6    2.22    0.91
   3   4   6    2.55    0.92
  -3  -4  -6    1.89    0.88
  -3  -4  -6    3.10    1.05
  -3  -4  -6    3.59    1.13
  -3  -4  -6    3.40    0.76
   1   4   7    3.58    1.04
   1   4   7    4.97    1.24
   1   4   7    3.88    0.97
   1   4   7    4.00    0.94
  -1  -4  -7    3.47    0.86
  -1  -4  -7    3.02    0.91
  -1  -4  -7    3.23    0.94
  -1   4   8    1.83    0.82
  -1   4   8    1.76    0.90
  -1   4   8    2.73    0.73
  -1   4   8    2.16    0.81
   1  -4  -8    2.91    0.72
   1  -4  -8    3.33    0.90
   1  -4  -8    1.55    0.72
   1  -4  -8    2.10    0.81
   1  -4  -8    2.14    0.62
  -3   4   9    5.45    1.14
  -3   4   9    4.40    0.76
  -3   4   9    5.07    0.71
  -3   4   9    4.66    1.18
   3  -4  -9    4.43    0.92
   3  -4  -9    7.17    1.37
   3  -4  -9    4.23    1.11
   3  -4  -9    5.26    1.20
   3  -4  -9    5.54    0.67
  -5   4  10    7.40    0.82
  -5   4  10    9.58    1.39
  -5   4  10   12.10    1.95
  -5   4  10    8.68    0.79
  -5   4  10   10.39    1.38
   5  -4 -10    8.60    1.19
   5  -4 -10    9.90    1.38
   5  -4 -10    8.54    1.12
   5  -4 -10    9.52    1.37
  -7   4  11   -0.16    0.88
  -7   4  11   -0.59    0.87
  -7   4  11   -0.32    0.86
   7  -4 -11   -0.58    0.70
   7  -4 -11   -1.57    0.91
   7  -4 -11   -0.25    0.79
   4   5   5   -0.25    0.81
   4   5   5   -0.20    0.90
   4   5   5   -1.55    0.73
   4   5   5   -0.34    0.72
  -4  -5  -5    0.63    0.66
  -4  -5  -5   -0.95    0.77
  -4  -5  -5   -1.05    0.84
  -4  -5  -5    0.68    0.85
   2   5   6    0.51    0.90
   2   5   6    0.81    0.66
   2   5   6    0.20    0.69
   2   5   6    0.87    0.61
  -2  -5  -6    0.16    0.68
  -2  -5  -6    0.55    0.72
  -2  -5  -6    0.62    0.83
  -2  -5  -6   -0.73    0.51
   0   5   7    2.25    0.83
   0   5   7    1.64    0.75
   0   5   7    1.18    0.58
   0   5   7    2.36    0.95
   0  -5  -7    2.42    0.72
   0  -5  -7    1.17    0.59
   0  -5  -7    0.83    0.61
  -2   5   8   -0.96    0.77
  -2   5   8   -0.70    0.41
  -2   5   8   -0.02    0.52
  -2   5   8    0.22    0.74
  -2   5   8    0.20    0.72
   2  -5  -8   -0.11    0.32
   2  -5  -8    0.26    0.45
   2  -5  -8    0.36    0.51
   2  -5  -8    0.08    0.61
   2  -5  -8   -0.09    0.46
  -4   5   9    1.33    0.44
  -4   5   9    0.17    0.65
  -4   5   9    0.84    0.80
  -4   5   9    2.86    1.08
   4  -5  -9    1.06    0.77
   4  -5  -9    1.59    0.64
   4  -5  -9    2.49    1.07
   4  -5  -9    1.87    0.82
  -6   5  10    1.03    0.74
  -6   5  10    0.45    0.66
   6  -5 -10    0.10    0.71
   6  -5 -10    1.07    0.75
   6  -5 -10    1.09    0.82
   6  -5 -10   -0.83    0.67
   3   6   5    2.48    0.97
   3   6   5    1.69    0.89
   3   6   5   -0.32    0.90
   3   6   5   -0.48    0.81
  -3  -6  -5   -0.14    0.88
  -3  -6  -5    0.76    0.82
  -3  -6  -5   -0.05    0.73
  -3  -6  -5   -1.69    0.70
   1   6   6    3.28    0.99
   1   6   6    3.28    1.05
   1   6   6    1.79    0.89
  -1  -6  -6    3.87    1.13
  -1  -6  -6    3.86    0.97
  -1  -6  -6    2.84    0.92
  -1  -6  -6    2.19    0.94
  -1   6   7    2.74    0.95
  -1   6   7    3.10    0.80
  -1   6   7    3.74    0.94
  -1   6   7    3.35    0.94
  -1   6   7    3.75    1.07
  -1   6   7    2.38    1.11
   1  -6  -7    1.89    0.61
   1  -6  -7    2.65    1.00
   1  -6  -7    2.72    0.86
   1  -6  -7    4.31    1.14
   1  -6  -7    2.34    0.80
  -3   6   8    0.91    0.64
  -3   6   8    1.13    0.70
  -3   6   8    0.98    0.71
  -3   6   8   -0.80    0.97
  -3   6   8   -0.02    0.33
   3  -6  -8    0.87    0.61
   3  -6  -8    1.17    0.75
   3  -6  -8    1.92    0.95
   3  -6  -8    0.38    0.51
  -5   6   9    2.92    1.10
  -5   6   9    2.87    1.05
  -5   6   9    2.28    1.16
   5  -6  -9    2.51    0.94
   5  -6  -9    2.04    1.15
   5  -6  -9    2.92    0.98
   5  -6  -9    4.34    1.07
  -7   6  10   -1.08    0.80
  -7   6  10    0.91    0.85
  -7   6  10    1.68    1.18
   7  -6 -10    0.35    0.77
   7  -6 -10    1.95    1.09
   7  -6 -10    0.25    0.74
   2   7   5   -0.28    0.69
   2   7   5   -1.02    0.74
   2   7   5   -0.51    0.77
   2   7   5   -0.17    0.84
  -2  -7  -5   -0.98    0.72
  -2  -7  -5    0.20    0.65
  -2  -7  -5    0.14    0.68
   0   7   6    0.32    1.15
   0   7   6    0.06    0.69
   0   7   6    0.66    0.77
   0   7   6    0.43    0.97
   0   7   6   -0.39    0.59
   0  -7  -6   -0.30    0.67
   0  -7  -6   -0.84    0.56
   0  -7  -6    0.57    0.60
   0  -7  -6    0.82    0.84
  -2   7   7    0.72    0.86
  -2   7   7    0.35    0.59
  -2   7   7    0.28    1.14
  -2   7   7    1.19    0.64
  -2   7   7    0.48    0.62
  -2   7   7   -0.63    0.50
   2  -7  -7    0.41    0.59
   2  -7  -7    0.50    0.78
   2  -7  -7   -0.17    0.60
   2  -7  -7    0.14    0.33
  -4   7   8    0.23    0.69
  -4   7   8   -0.50    0.66
  -4   7   8   -0.26    0.75
   4  -7  -8    1.33    0.78
   4  -7  -8   -0.87    0.70
   4  -7  -8   -0.47    0.86
  -6   7   9   -0.34    0.89
  -6   7   9    0.42    0.86
  -6   7   9   -0.37    0.70
   6  -7  -9   -0.38    0.74
   6  -7  -9    1.18    0.79
   6  -7  -9    0.22    0.88
   1   8   5    1.07    0.71
   1   8   5    1.67    1.05
   1   8   5    1.09    0.84
   1   8   5    0.27    0.65
  -1  -8  -5    1.10    0.87
  -1  -8  -5    5.75    1.63
  -1  -8  -5    0.10    0.87
  -1   8   6   -0.55    0.74
  -1   8   6    0.17    0.82
  -1   8   6    0.67    0.67
   1  -8  -6   -0.72    0.73
   1  -8  -6    1.95    0.79
   1  -8  -6    0.10    0.47
  -3   8   7    0.19    0.89
  -3   8   7   -0.38    0.65
  -3   8   7    0.93    0.89
   3  -8  -7    0.18    0.67
   3  -8  -7    0.08    0.81
   3  -8  -7   -0.06    0.77
  -5   8   8    0.50    0.91
  -5   8   8    1.08    0.84
  -5   8   8    0.12    0.86
   5  -8  -8   -0.16    0.77
   5  -8  -8    1.25    0.95
   5  -8  -8    1.75    1.00
   0   9   5    1.51    1.05
   0   9   5    0.85    0.79
   0   9   5    0.99    0.96
   0   9   5    0.31    0.81
   0  -9  -5    1.64    0.82
   0  -9  -5    1.15    0.88
   0  -9  -5    2.82    1.34
  -2   9   6    2.46    1.10
  -2   9   6    3.98    1.22
  -2   9   6    2.96    1.15
  -2   9   6    1.64    1.02
   2  -9  -6    4.03    1.28
   2  -9  -6    2.52    1.12
   2  -9  -6    0.88    0.47
   2  -9  -6    0.84    1.06
  -4   9   7    1.76    1.04
  -4   9   7    0.66    0.84
   4  -9  -7    1.02    0.88
   4  -9  -7   -0.12    0.88
   4  -9  -7   -0.14    0.59
  -1  10   5    0.82    0.96
  -1  10   5    0.18    0.78
   1 -10  -5    1.67    0.80
   1 -10  -5    0.50    1.03
  -3  10   6    1.21    1.07
  -3  10   6    0.05    0.95
   3 -10  -6    1.86    1.14
   3 -10  -6   -0.89    0.88
   3 -10  -6    0.56    0.98
   2  -6  12    1.94    1.16
   2  -6  12    2.17    0.99
   2  -6  12    1.37    0.95
  -2   6 -12    2.58    1.09
  -2   6 -12    1.44    1.15
  -2   6 -12    1.56    0.92
  -2   6 -12    2.18    0.85
   5  -5  10    3.65    1.23
   5  -5  10    2.31    0.99
  -5   5 -10    1.21    1.02
  -5   5 -10    0.92    1.04
   3  -5  11    1.12    0.94
   3  -5  11   -0.43    0.84
  -3   5 -11    0.27    0.50
  -3   5 -11    0.15    0.76
  -3   5 -11    0.79    0.87
   1  -5  12    3.41    1.29
   1  -5  12    3.59    1.21
   1  -5  12    3.69    1.31
  -1   5 -12    4.40    1.09
  -1   5 -12    2.53    1.19
  -1   5 -12    1.26    0.82
  -1   5 -12    2.36    0.86
  -1  -5  13    0.48    0.97
  -1  -5  13    0.64    0.93
   1   5 -13   -0.26    0.73
   1   5 -13    0.02    0.74
   4  -4  10    5.44    1.36
   4  -4  10    4.28    1.28
  -4   4 -10    4.73    1.54
  -4   4 -10    5.14    1.26
  -4   4 -10    4.39    1.19
   2  -4  11   -0.12    0.88
   2  -4  11    0.74    1.04
  -2   4 -11   -0.91    0.60
  -2   4 -11    0.12    0.54
  -2   4 -11    0.97    0.92
  -2   4 -11    0.09    0.67
  -2   4 -11   -0.53    0.99
   0  -4  12    2.96    1.20
   0  -4  12    4.86    1.22
   0  -4  12    4.93    1.34
   0   4 -12    2.83    1.16
   0   4 -12    2.09    0.96
   0   4 -12    4.34    1.13
  -2  -4  13    0.39    0.83
  -2  -4  13    1.27    0.87
  -2  -4  13    0.76    0.85
   2   4 -13   -0.14    0.68
   2   4 -13   -0.60    0.97
   2   4 -13   -0.79    0.82
   5  -3   9    1.45    0.93
   5  -3   9    0.00    0.90
  -5   3  -9    0.04    0.77
  -5   3  -9    0.26    0.84
  -5   3  -9   -0.33    0.72
   3  -3  10    0.15    0.74
   3  -3  10    0.38    0.80
  -3   3 -10    0.95    0.76
  -3   3 -10    0.22    0.51
  -3   3 -10    0.15    0.44
  -3   3 -10   -0.06    0.78
  -3   3 -10    0.68    0.67
   1  -3  11    0.44    0.79
   1  -3  11   -0.44    0.78
   1  -3  11    0.24    0.74
  -1   3 -11    1.16    0.81
  -1   3 -11    0.00    0.71
  -1   3 -11    1.27    0.71
  -1   3 -11    0.50    0.78
  -1   3 -11    0.79    0.63
  -1  -3  12    0.40    0.80
  -1  -3  12    1.07    0.88
  -1  -3  12    0.09    0.76
   1   3 -12    0.55    0.62
   1   3 -12    1.52    0.78
   1   3 -12    0.11    0.73
   1   3 -12    0.70    0.65
  -3  -3  13    1.42    1.07
  -3  -3  13    0.98    0.79
  -3  -3  13    1.19    0.93
   3   3 -13    0.56    0.86
   3   3 -13    0.62    0.86
   3   3 -13   -0.57    0.56
   6  -2   8    2.42    1.05
   6  -2   8    0.70    1.02
  -6   2  -8   -0.75    0.87
  -6   2  -8   -0.93    0.84
  -6   2  -8    0.41    0.91
   4  -2   9    0.42    0.70
   4  -2   9    0.55    0.69
  -4   2  -9   -0.30    0.63
  -4   2  -9    1.11    0.94
  -4   2  -9    0.73    0.72
   2  -2  10    3.99    0.80
   2  -2  10    3.87    0.74
   2  -2  10    3.64    1.20
   2  -2  10    4.69    1.26
  -2   2 -10    4.18    1.17
  -2   2 -10    5.05    1.17
  -2   2 -10    4.71    1.11
  -2   2 -10    4.01    0.79
   0  -2  11    3.37    0.87
   0  -2  11    1.63    0.57
   0  -2  11    3.72    0.97
   0   2 -11    4.74    1.43
   0   2 -11    3.75    1.11
   0   2 -11    5.09    1.07
   0   2 -11    2.79    0.88
   0   2 -11    3.59    0.99
  -2  -2  12    6.93    1.44
  -2  -2  12    5.22    1.00
  -2  -2  12    5.10    1.27
  -2  -2  12    5.26    1.23
   2   2 -12    6.39    1.78
   2   2 -12    6.05    1.26
   2   2 -12    4.02    1.14
   2   2 -12    6.02    1.37
  -4  -2  13    0.47    0.88
  -4  -2  13    0.19    0.89
  -4  -2  13    0.89    0.76
   4   2 -13   -0.17    0.78
   4   2 -13    0.27    0.64
   4   2 -13    0.30    0.69
   4   2 -13    0.41    0.86
   5  -1   8    1.58    0.67
   5  -1   8    1.65    1.15
   5  -1   8    2.09    0.97
  -5   1  -8    1.70    0.88
  -5   1  -8    2.03    0.90
  -5   1  -8    1.35    0.86
   3  -1   9    2.71    0.92
   3  -1   9    0.93    0.41
   3  -1   9    1.97    0.83
   3  -1   9    1.00    0.73
  -3   1  -9    1.99    0.46
  -3   1  -9    1.29    0.92
  -3   1  -9    2.24    0.89
  -3   1  -9    1.50    0.73
  -3   1  -9    2.14    0.95
   1  -1  10    0.02    0.64
   1  -1  10   -0.30    0.47
   1  -1  10    0.31    0.72
  -1   1 -10    0.07    0.48
  -1   1 -10    0.65    0.49
  -1   1 -10   -0.52    0.51
  -1   1 -10    0.27    0.66
  -1   1 -10   -0.02    0.64
  -1  -1  11    1.49    0.65
  -1  -1  11    0.76    0.62
  -1  -1  11    0.26    0.66
  -1  -1  11    1.17    0.82
   1   1 -11    1.79    0.67
   1   1 -11    1.73    0.88
   1   1 -11    0.76    0.82
   1   1 -11    2.00    0.81
   1   1 -11    2.01    0.82
  -3  -1  12    0.77    0.84
  -3  -1  12    1.76    0.91
  -3  -1  12   -0.46    0.57
   3   1 -12   -0.76    0.65
   3   1 -12    1.30    0.67
   3   1 -12    0.14    1.29
   3   1 -12    1.16    0.46
  -5  -1  13   -0.60    0.77
  -5  -1  13    1.48    1.17
  -5  -1  13    0.98    0.85
   5   1 -13    0.51    0.73
   5   1 -13    0.21    0.93
   5   1 -13    2.17    1.00
   5   1 -13   -0.01    0.73
   6   0   7    1.53    0.88
   6   0   7    0.35    0.75
   6   0   7    1.05    0.96
  -6   0  -7    1.88    0.97
  -6   0  -7    2.91    1.17
   4   0   8    7.08    1.52
   4   0   8    4.25    0.99
   4   0   8    5.02    0.91
   4   0   8    5.05    1.24
  -4   0  -8    4.73    1.40
  -4   0  -8    4.27    1.18
  -4   0  -8    5.84    1.27
  -4   0  -8    5.63    1.39
   2   0   9    5.43    1.22
   2   0   9    4.93    1.28
   2   0   9    4.96    0.93
   2   0   9    3.36    0.73
  -2   0  -9    3.38    0.77
  -2   0  -9    5.77    1.26
  -2   0  -9    2.58    0.95
  -2   0  -9    3.22    1.02
   0   0  10    0.65    0.61
   0   0  10    0.41    0.49
   0   0  10   -0.14    0.62
   0   0 -10    0.91    0.71
   0   0 -10    0.44    0.70
   0   0 -10    0.06    0.45
   0   0 -10   -0.37    0.49
   0   0 -10    0.17    0.47
  -2   0  11   -0.08    0.71
  -2   0  11    0.94    0.82
  -2   0  11   -0.08    0.54
  -2   0  11   -1.02    0.48
   2   0 -11    0.22    0.68
   2   0 -11   -0.14    0.35
   2   0 -11   -0.69    0.28
   2   0 -11    0.13    0.47
   2   0 -11    0.32    0.71
   2   0 -11   -0.19    0.19
   2   0 -11    0.26    0.57
  -4   0  12    0.41    0.69
  -4   0  12    1.01    0.81
  -4   0  12    1.22    0.68
  -4   0  12    1.81    0.87
   4   0 -12    0.28    0.62
   4   0 -12    1.93    0.69
   4   0 -12    0.63    0.59
   4   0 -12    0.60    0.90
   5   1   7    0.62    0.78
   5   1   7    0.28    0.64
   5   1   7    0.66    0.83
  -5  -1  -7    1.78    0.88
  -5  -1  -7    2.32    1.01
   3   1   8    1.47    0.69
   3   1   8    0.12    0.43
   3   1   8    0.89    0.63
   3   1   8    0.44    0.47
  -3  -1  -8   -0.15    0.49
  -3  -1  -8    0.91    1.55
  -3  -1  -8    2.00    0.56
  -3  -1  -8    0.94    0.57
  -3  -1  -8    3.39    1.09
  -3  -1  -8    0.91    0.75
  -3  -1  -8    0.45    0.52
   1   1   9    5.18    1.21
   1   1   9    4.53    1.00
   1   1   9    2.23    0.82
  -1  -1  -9    4.44    1.08
  -1  -1  -9    3.39    0.87
  -1  -1  -9    3.60    1.03
  -1  -1  -9    2.96    0.97
  -1  -1  -9    3.95    0.83
  -1   1  10    0.48    0.45
  -1   1  10    0.48    0.52
  -1   1  10    0.12    0.51
   1  -1 -10    0.87    0.64
   1  -1 -10    0.29    0.60
   1  -1 -10   -0.06    0.54
   1  -1 -10    0.32    0.54
   1  -1 -10    0.51    0.59
   1  -1 -10    0.12    0.21
  -3   1  11    0.56    0.60
  -3   1  11    0.80    0.62
   3  -1 -11    0.41    0.69
   3  -1 -11    0.49    0.64
  -5   1  12   -0.19    0.68
  -5   1  12    0.29    0.83
  -5   1  12    0.31    0.82
  -5   1  12   -0.32    0.70
   5  -1 -12   -0.33    0.71
   5  -1 -12    1.21    0.91
   5  -1 -12   -0.29    0.53
   5  -1 -12    0.61    0.59
   6   2   6    0.28    0.90
   6   2   6   -0.26    0.78
  -6  -2  -6   -0.56    0.72
   4   2   7   -0.45    0.61
   4   2   7    0.27    0.77
   4   2   7    0.56    0.69
   4   2   7    0.29    0.64
  -4  -2  -7    0.93    0.76
  -4  -2  -7   -0.03    0.51
  -4  -2  -7    0.13    0.50
  -4  -2  -7    0.89    0.74
   2   2   8    0.49    0.51
   2   2   8    0.62    0.55
   2   2   8    0.10    0.53
   2   2   8    0.29    0.65
  -2  -2  -8    0.50    0.76
  -2  -2  -8   -0.50    0.63
   0   2   9    8.98    1.55
   0   2   9    7.06    1.39
   0   2   9    5.73    1.26
   0  -2  -9    4.42    0.59
   0  -2  -9    5.81    1.20
   0  -2  -9    6.71    1.18
   0  -2  -9    6.25    1.27
   0  -2  -9    5.57    0.60
   0  -2  -9    6.23    1.12
  -2   2  10    3.23    1.46
  -2   2  10    2.42    0.85
  -2   2  10    4.35    1.14
   2  -2 -10    3.75    0.89
   2  -2 -10    3.74    0.90
   2  -2 -10    4.18    1.06
   2  -2 -10    3.97    0.85
   2  -2 -10    3.98    1.04
   2  -2 -10    3.59    0.65
  -4   2  11    6.18    1.36
  -4   2  11    5.31    1.15
  -4   2  11    6.70    1.16
  -4   2  11   10.93    2.02
   4  -2 -11    5.44    0.95
   4  -2 -11    7.38    1.55
   4  -2 -11    8.40    1.55
  -6   2  12   -0.58    0.69
  -6   2  12    0.63    0.87
  -6   2  12   -0.69    0.81
  -6   2  12   -1.44    0.87
   6  -2 -12   -0.30    0.65
   6  -2 -12    0.93    0.91
   6  -2 -12    1.48    0.92
   6  -2 -12   -0.88    0.67
   5   3   6    0.88    0.90
   5   3   6   -1.25    1.35
   5   3   6   -0.24    0.72
   5   3   6    1.11    0.70
  -5  -3  -6   -0.48    0.91
  -5  -3  -6    0.66    0.90
  -5  -3  -6   -0.04    0.90
   3   3   7    1.00    0.72
   3   3   7    1.16    0.74
   3   3   7    2.59    0.83
   3   3   7    0.82    0.68
  -3  -3  -7    1.00    0.56
  -3  -3  -7    0.83    0.74
  -3  -3  -7    1.88    0.95
  -3  -3  -7    0.61    0.69
   1   3   8    1.81    0.59
   1   3   8    0.74    0.75
   1   3   8    1.58    0.80
   1   3   8    1.32    0.68
  -1  -3  -8    0.85    0.56
  -1  -3  -8    2.60    0.88
  -1  -3  -8    1.82    0.84
  -1  -3  -8    1.80    0.79
  -1   3   9    0.87    0.65
  -1   3   9    0.92    0.68
  -1   3   9    1.09    0.62
   1  -3  -9    0.77    0.53
   1  -3  -9    0.84    0.48
   1  -3  -9    1.02    0.54
   1  -3  -9    1.74    0.82
   1  -3  -9    0.84    0.70
   1  -3  -9    1.59    0.72
  -3   3  10    5.48    1.32
  -3   3  10    2.47    0.71
  -3   3  10    4.26    0.84
  -3   3  10    4.06    1.00
  -3   3  10    3.05    1.07
   3  -3 -10    5.34    1.26
   3  -3 -10    4.45    0.82
   3  -3 -10    5.04    1.17
   3  -3 -10    3.73    0.75
  -5   3  11    0.99    0.70
  -5   3  11    0.65    0.88
  -5   3  11    1.25    0.77
  -5   3  11    1.00    0.92
   5  -3 -11    1.68    0.80
   5  -3 -11    2.29    1.01
   5  -3 -11    0.96    0.64
   4   4   6   -1.54    0.67
   4   4   6    0.48    0.79
  -4  -4  -6    0.70    0.85
  -4  -4  -6   -0.37    0.75
  -4  -4  -6    0.40    0.80
  -4  -4  -6    0.46    0.66
   2   4   7    0.65    0.70
   2   4   7    0.09    0.51
   2   4   7    1.01    0.84
   2   4   7   -0.20    0.62
  -2  -4  -7    0.65    0.60
  -2  -4  -7   -0.11    0.66
  -2  -4  -7   -0.44    0.48
  -2  -4  -7    0.60    0.72
   0   4   8    9.61    1.30
   0   4   8    9.35    1.41
   0   4   8   10.93    1.33
   0  -4  -8    9.37    0.97
   0  -4  -8    9.71    1.09
   0  -4  -8   11.46    1.38
   0  -4  -8   11.53    1.25
  -2   4   9    2.78    0.87
  -2   4   9    1.20    0.73
  -2   4   9    1.67    0.62
  -2   4   9    1.62    0.97
   2  -4  -9    2.69    0.92
   2  -4  -9    2.22    0.58
   2  -4  -9    1.74    0.57
   2  -4  -9    2.77    0.81
   2  -4  -9    2.99    1.02
  -4   4  10   -0.19    0.59
  -4   4  10   -0.60    0.45
  -4   4  10    0.17    0.48
  -4   4  10    0.41    0.76
  -4   4  10    1.00    0.64
   4  -4 -10   -0.35    0.44
   4  -4 -10    1.04    0.85
   4  -4 -10   -0.04    0.71
   4  -4 -10    0.09    0.63
  -6   4  11    1.74    0.94
  -6   4  11    2.32    1.27
  -6   4  11    2.03    1.04
   6  -4 -11    2.21    0.88
   6  -4 -11    1.17    0.80
   6  -4 -11    1.18    0.76
   3   5   6    0.86    0.81
   3   5   6   -0.50    0.75
   3   5   6    0.66    0.82
  -3  -5  -6   -0.19    0.70
  -3  -5  -6    0.42    0.89
  -3  -5  -6    0.49    0.78
  -3  -5  -6    0.77    0.87
   1   5   7    3.16    0.98
   1   5   7    3.52    1.04
   1   5   7    4.54    1.11
   1   5   7    2.45    0.93
  -1  -5  -7    4.25    1.00
  -1  -5  -7    2.13    0.87
  -1  -5  -7    2.66    0.89
  -1  -5  -7    3.36    1.05
  -1   5   8    1.74    0.70
  -1   5   8    1.57    0.88
  -1   5   8    2.07    0.95
  -1   5   8    1.40    0.63
   1  -5  -8    1.27    0.84
   1  -5  -8    1.12    0.64
   1  -5  -8    1.69    0.66
   1  -5  -8    0.97    0.75
  -3   5   9    4.50    1.20
  -3   5   9    3.82    0.75
  -3   5   9    4.54    1.18
  -3   5   9    4.99    1.49
  -3   5   9    5.28    0.65
   3  -5  -9    5.07    1.23
   3  -5  -9    6.80    1.17
   3  -5  -9    4.24    1.14
   3  -5  -9    5.63    1.17
   3  -5  -9    3.74    0.60
  -5   5  10    3.49    1.02
  -5   5  10    5.13    1.28
  -5   5  10    4.79    1.36
   5  -5 -10    5.52    1.29
   5  -5 -10    4.42    1.10
   5  -5 -10    5.74    1.39
   5  -5 -10    4.82    1.11
  -7   5  11    1.03    1.25
   4   6   5    0.51    1.28
   2   6   6    0.00    0.76
   2   6   6    0.36    0.79
   2   6   6    0.25    0.78
   2   6   6   -1.10    0.65
  -2  -6  -6   -0.86    0.75
  -2  -6  -6    0.22    0.69
  -2  -6  -6    1.08    0.71
  -2  -6  -6    1.10    0.67
   0   6   7    4.87    1.28
   0   6   7    3.28    1.08
   0   6   7    4.14    1.03
   0   6   7    4.21    1.02
   0  -6  -7    2.41    0.98
   0  -6  -7    3.75    0.95
   0  -6  -7    2.57    0.81
   0  -6  -7    3.13    0.87
  -2   6   8    0.48    0.93
  -2   6   8    2.13    0.69
  -2   6   8    1.90    0.97
  -2   6   8    1.90    0.87
   2  -6  -8    1.21    0.74
   2  -6  -8    1.13    0.75
   2  -6  -8    0.90    0.40
   2  -6  -8    1.03    0.85
  -4   6   9    0.79    0.73
  -4   6   9    0.90    0.79
  -4   6   9    0.75    0.60
   4  -6  -9    0.94    0.94
   4  -6  -9   -0.06    0.65
   4  -6  -9    0.99    0.75
  -6   6  10    0.63    0.86
  -6   6  10    0.24    0.80
  -6   6  10    2.19    1.21
   6  -6 -10    0.93    0.86
   6  -6 -10    0.26    0.71
   6  -6 -10   -1.02    0.74
   3   7   5    1.57    0.97
   3   7   5   -0.44    1.13
   3   7   5    0.32    0.92
   3   7   5    1.11    1.23
  -3  -7  -5   -1.33    0.86
  -3  -7  -5   -1.09    0.79
  -3  -7  -5    1.06    0.99
   1   7   6    2.23    1.06
   1   7   6   -0.10    0.66
   1   7   6   -0.63    0.66
   1   7   6    0.16    0.79
  -1  -7  -6   -0.39    0.71
  -1  -7  -6   -0.56    0.57
  -1  -7  -6    0.76    0.69
  -1   7   7   -0.75    0.61
  -1   7   7   -0.02    1.09
  -1   7   7    0.61    0.75
  -1   7   7    2.25    1.07
   1  -7  -7   -0.51    0.46
   1  -7  -7   -0.17    0.60
   1  -7  -7    0.30    0.69
   1  -7  -7    0.54    0.71
   1  -7  -7    0.79    0.63
  -3   7   8   -0.41    0.75
  -3   7   8   -0.60    0.60
  -3   7   8   -1.73    1.28
  -3   7   8   -0.35    0.80
   3  -7  -8    0.19    0.80
   3  -7  -8    0.33    0.54
   3  -7  -8    0.56    0.81
   3  -7  -8   -0.55    0.67
  -5   7   9    1.82    0.78
  -5   7   9    3.85    1.15
  -5   7   9    1.50    0.84
   5  -7  -9    0.78    1.14
   5  -7  -9    2.78    0.86
   5  -7  -9    1.94    0.97
   2   8   5    1.11    0.91
   2   8   5    2.39    1.08
   2   8   5    2.22    1.30
  -2  -8  -5    0.20    0.66
  -2  -8  -5   -1.13    0.78
  -2  -8  -5   -0.33    1.05
   0   8   6    3.29    1.13
   0   8   6    1.46    0.99
   0   8   6    4.19    1.88
   0   8   6    3.47    1.06
   0  -8  -6    2.34    0.91
   0  -8  -6    1.85    0.88
   0  -8  -6    3.45    1.11
  -2   8   7    1.61    0.83
  -2   8   7    0.61    0.58
  -2   8   7    0.50    0.89
  -2   8   7    0.30    0.75
   2  -8  -7    0.11    0.39
   2  -8  -7    0.10    0.68
   2  -8  -7   -0.32    0.78
   2  -8  -7    1.52    0.72
  -4   8   8    3.79    1.34
  -4   8   8   -0.12    0.68
   4  -8  -8    1.16    0.67
   4  -8  -8   -0.41    0.75
   4  -8  -8   -0.39    0.70
  -6   8   9    1.49    1.17
  -6   8   9    0.76    0.95
  -6   8   9    0.71    0.90
   6  -8  -9    1.01    1.00
   6  -8  -9    1.47    1.10
   6  -8  -9   -0.91    1.13
  -1   9   6   -0.27    0.75
  -1   9   6   -0.25    0.90
  -1   9   6   -0.59    0.91
  -1   9   6    0.50    0.80
   1  -9  -6   -0.95    0.96
   1  -9  -6   -0.09    0.62
   1  -9  -6    0.25    0.92
   1  -9  -6    0.30    1.08
  -3   9   7    0.41    0.88
  -3   9   7    1.86    1.04
  -3   9   7    0.97    1.10
   3  -9  -7    0.88    0.60
   3  -9  -7    0.63    0.77
   3  -9  -7    0.00    0.87
  -5   9   8    0.14    0.92
  -5   9   8    0.50    0.91
   5  -9  -8    1.05    1.03
   5  -9  -8    0.50    1.14
   5  -9  -8    0.31    1.06
   4  -5  11    0.03    0.89
   4  -5  11    0.54    1.02
  -4   5 -11    0.09    0.75
  -4   5 -11   -0.10    0.89
  -4   5 -11    0.52    0.96
   2  -5  12    1.43    1.13
   2  -5  12    0.85    1.10
  -2   5 -12   -0.02    0.83
  -2   5 -12    0.56    0.77
   0  -5  13    0.60    0.88
   0  -5  13    0.35    1.12
   0  -5  13   -0.72    0.70
   0   5 -13   -0.15    0.84
   0   5 -13   -0.86    0.89
   0   5 -13    0.31    0.71
   0   5 -13   -0.07    0.80
   5  -4  10    0.39    0.65
   5  -4  10    0.55    0.92
  -5   4 -10    0.67    1.09
  -5   4 -10   -0.30    0.84
  -5   4 -10    0.06    0.77
   3  -4  11    3.47    1.35
   3  -4  11    3.94    1.24
  -3   4 -11    2.96    1.12
  -3   4 -11    4.95    1.14
  -3   4 -11    1.85    0.78
  -3   4 -11    6.71    1.62
   1  -4  12    4.17    1.36
   1  -4  12    7.86    1.57
  -1   4 -12    5.47    1.23
  -1   4 -12    5.47    1.13
  -1   4 -12    9.59    1.81
  -1   4 -12    4.54    1.27
  -1  -4  13   -0.22    0.77
  -1  -4  13    0.44    0.94
  -1  -4  13    0.45    0.97
   1   4 -13   -0.51    0.89
   1   4 -13    0.78    0.78
   1   4 -13    1.25    0.75
   4  -3  10   -0.08    0.58
   4  -3  10    0.43    0.70
  -4   3 -10   -0.06    0.73
  -4   3 -10   -0.90    0.48
  -4   3 -10    0.66    0.79
   2  -3  11   -0.25    0.75
   2  -3  11    0.25    0.88
  -2   3 -11    0.06    0.53
  -2   3 -11    0.69    0.82
  -2   3 -11   -0.52    0.58
  -2   3 -11    0.76    0.71
   0  -3  12    7.90    1.63
   0  -3  12    6.02    1.48
   0  -3  12    5.85    1.38
   0   3 -12    5.18    1.23
   0   3 -12    5.73    1.41
   0   3 -12    4.30    1.21
   0   3 -12    5.42    1.19
  -2  -3  13    1.77    1.01
  -2  -3  13    3.56    1.08
  -2  -3  13    2.33    1.02
   2   3 -13    1.18    1.16
   2   3 -13    1.25    0.87
   2   3 -13    2.73    1.09
   5  -2   9    0.99    0.94
   5  -2   9   -0.44    0.95
  -5   2  -9   -0.45    0.76
  -5   2  -9    0.89    0.81
  -5   2  -9    0.54    1.06
   3  -2  10   -0.64    0.44
   3  -2  10    0.09    0.49
  -3   2 -10    0.34    0.67
  -3   2 -10    0.20    0.70
  -3   2 -10    0.78    0.46
  -3   2 -10   -0.19    0.60
   1  -2  11    0.21    0.62
   1  -2  11   -0.27    0.69
   1  -2  11    1.46    0.92
  -1   2 -11    0.76    0.83
  -1   2 -11    0.21    0.67
  -1   2 -11    1.25    0.84
  -1   2 -11    0.70    0.87
  -1   2 -11    1.00    0.62
  -1  -2  12    1.01    0.81
  -1  -2  12    0.90    0.80
  -1  -2  12    2.07    0.98
   1   2 -12    0.75    1.22
   1   2 -12    1.61    0.73
   1   2 -12    0.93    0.78
   1   2 -12    0.45    0.58
  -3  -2  13    0.25    0.75
  -3  -2  13    4.08    1.46
  -3  -2  13    1.83    0.91
   3   2 -13    0.92    0.71
   3   2 -13    1.25    0.92
   3   2 -13    0.82    0.85
   6  -1   8    1.08    0.98
  -6   1  -8    3.08    1.19
  -6   1  -8    1.99    1.28
  -6   1  -8    1.73    0.89
   4  -1   9    6.97    1.57
   4  -1   9    6.58    1.46
  -4   1  -9    4.76    1.27
  -4   1  -9    7.17    1.65
  -4   1  -9    5.13    1.28
   2  -1  10    1.15    0.68
   2  -1  10    0.26    0.47
   2  -1  10   -0.31    0.48
   2  -1  10    0.21    0.83
  -2   1 -10   -0.14    0.58
  -2   1 -10   -0.74    0.76
  -2   1 -10    0.03    0.36
  -2   1 -10    0.06    0.50
   0  -1  11    1.50    0.85
   0  -1  11    0.62    0.56
   0  -1  11   -0.50    0.70
   0   1 -11    0.76    0.93
   0   1 -11    0.91    0.60
   0   1 -11    1.05    0.81
   0   1 -11    0.16    0.53
  -2  -1  12    1.52    0.74
  -2  -1  12    3.00    0.90
  -2  -1  12    5.16    1.18
   2   1 -12    2.38    0.92
   2   1 -12    2.24    1.00
   2   1 -12    1.14    1.15
   2   1 -12    1.94    1.11
  -4  -1  13    0.18    0.86
  -4  -1  13    0.96    0.91
  -4  -1  13    0.71    0.95
   4   1 -13    0.90    0.75
   4   1 -13    0.00    0.54
   4   1 -13    0.19    0.58
   4   1 -13    0.70    0.83
   5   0   8    1.22    0.99
   5   0   8    1.10    0.68
  -5   0  -8    1.56    1.07
  -5   0  -8    1.19    0.89
  -5   0  -8    1.50    0.99
   3   0   9    2.44    0.94
   3   0   9    1.03    0.64
   3   0   9    0.65    0.65
   3   0   9    1.90    0.47
  -3   0  -9    1.80    0.88
  -3   0  -9    0.37    0.69
  -3   0  -9    1.15    0.51
  -3   0  -9    2.69    1.10
  -3   0  -9    2.00    0.82
  -3   0  -9    1.13    0.83
   1   0  10    0.93    0.76
   1   0  10    0.26    0.48
   1   0  10    4.64    1.21
  -1   0 -10    0.22    0.72
  -1   0 -10   -0.11    0.63
  -1   0 -10   -0.02    0.39
  -1   0 -10    1.14    0.60
  -1   0 -10    0.66    0.75
  -1   0  11    0.00    0.56
  -1   0  11   -0.22    0.42
  -1   0  11   -0.79    0.56
   1   0 -11   -0.50    0.62
   1   0 -11    0.44    0.69
   1   0 -11   -0.57    0.49
   1   0 -11   -0.42    0.80
   1   0 -11   -0.01    0.52
  -3   0  12    0.34    0.63
  -3   0  12    1.51    1.02
  -3   0  12    0.27    0.77
   3   0 -12    1.16    0.45
   3   0 -12    0.13    0.78
   3   0 -12   -0.01    0.78
   3   0 -12    1.23    0.76
  -5   0  13    0.76    1.01
  -5   0  13    0.10    0.80
   5   0 -13    0.85    0.67
   5   0 -13    1.25    1.03
   5   0 -13    3.07    1.12
   4   1   8    2.73    1.00
   4   1   8    2.39    0.94
  -4  -1  -8    2.89    0.96
  -4  -1  -8    2.06    1.01
  -4  -1  -8    0.56    0.93
   2   1   9    1.90    0.96
   2   1   9    0.31    0.53
   2   1   9    0.89    0.69
  -2  -1  -9    1.70    0.95
  -2  -1  -9    0.66    0.32
  -2  -1  -9    1.09    0.69
  -2  -1  -9   -0.44    0.86
  -2  -1  -9    0.85    0.35
   0   1  10    1.65    0.88
   0   1  10    0.91    0.61
   0   1  10    0.86    0.73
   0  -1 -10    1.68    0.83
   0  -1 -10    1.48    0.81
   0  -1 -10    1.04    0.62
   0  -1 -10    1.01    0.69
   0  -1 -10    0.65    0.63
  -2   1  11    0.18    0.55
  -2   1  11    1.01    0.59
  -2   1  11    1.43    0.82
  -2   1  11    1.64    0.87
   2  -1 -11    1.16    0.47
   2  -1 -11    1.75    0.88
   2  -1 -11    0.61    0.64
   2  -1 -11    0.88    0.66
   2  -1 -11    0.63    0.34
   2  -1 -11    0.75    0.66
  -4   1  12    3.63    1.21
  -4   1  12    3.08    0.95
  -4   1  12    3.53    1.34
  -4   1  12    1.27    0.79
   4  -1 -12    1.41    0.72
   4  -1 -12    1.32    0.56
   4  -1 -12    2.09    0.85
   4  -1 -12    2.62    0.98
   5   2   7   -0.11    0.64
   5   2   7   -0.30    0.75
   5   2   7    0.00    0.70
  -5  -2  -7   -1.09    0.86
  -5  -2  -7   -1.09    0.88
  -5  -2  -7    0.92    0.82
   3   2   8    1.81    0.84
   3   2   8    1.40    0.78
   3   2   8    1.77    0.88
  -3  -2  -8    2.42    0.66
  -3  -2  -8    2.64    0.96
  -3  -2  -8    2.56    0.83
  -3  -2  -8    3.02    1.02
  -3  -2  -8    2.82    0.90
   1   2   9    9.25    2.41
   1   2   9    5.83    1.30
   1   2   9    6.51    1.17
  -1  -2  -9    5.00    0.98
  -1  -2  -9    5.72    1.30
  -1  -2  -9    5.96    1.20
  -1  -2  -9    4.90    0.58
  -1  -2  -9    4.63    0.61
  -1  -2  -9    5.53    1.06
  -1   2  10   10.67    1.42
  -1   2  10    9.43    1.54
  -1   2  10    9.87    1.88
   1  -2 -10    8.87    0.78
   1  -2 -10    9.09    1.16
   1  -2 -10   11.65    1.14
   1  -2 -10    8.40    0.82
   1  -2 -10   11.43    2.17
   1  -2 -10    9.95    1.30
  -3   2  11    1.17    0.72
  -3   2  11    1.63    0.74
  -3   2  11   -0.56    0.55
  -3   2  11    1.98    0.82
   3  -2 -11    1.43    0.84
   3  -2 -11   -0.03    0.80
   3  -2 -11    1.45    0.80
   3  -2 -11    1.52    0.47
   3  -2 -11    0.92    0.60
  -5   2  12    1.89    0.93
  -5   2  12    0.19    0.91
   5  -2 -12   -0.55    0.47
   5  -2 -12    1.06    0.86
   5  -2 -12   -1.37    0.69
   5  -2 -12    1.19    0.78
   4   3   7   -0.25    0.69
   4   3   7    0.09    0.84
   4   3   7    0.46    0.64
  -4  -3  -7   -0.89    0.83
  -4  -3  -7    0.17    0.78
  -4  -3  -7    0.19    0.81
   2   3   8    3.14    1.10
   2   3   8    2.28    0.90
   2   3   8    3.38    1.77
  -2  -3  -8    2.76    0.75
  -2  -3  -8    3.03    1.05
  -2  -3  -8    2.14    0.76
  -2  -3  -8    3.25    1.03
   0   3   9    1.48    0.73
   0   3   9    1.23    0.56
   0  -3  -9    0.88    0.45
   0  -3  -9    1.68    0.72
   0  -3  -9    1.01    0.63
   0  -3  -9    1.07    0.82
   0  -3  -9    1.75    0.71
   0  -3  -9    0.42    0.50
  -2   3  10    1.32    0.77
  -2   3  10    1.06    0.74
  -2   3  10    0.69    0.78
   2  -3 -10    0.42    0.55
   2  -3 -10    1.14    0.49
   2  -3 -10    0.93    0.53
   2  -3 -10    1.89    0.93
   2  -3 -10    2.39    0.78
  -4   3  11    1.35    0.93
  -4   3  11    1.22    0.92
  -4   3  11    0.33    0.67
   4  -3 -11    1.14    0.70
   4  -3 -11   -0.36    0.60
   4  -3 -11    0.77    0.75
   4  -3 -11   -0.22    0.40
  -6   3  12    0.29    1.11
  -6   3  12    0.89    0.79
  -6   3  12    2.99    1.15
  -6   3  12    1.75    0.81
   6  -3 -12    1.23    0.78
   6  -3 -12    1.42    1.03
   6  -3 -12    2.63    1.19
   3   4   7    0.75    0.81
   3   4   7    0.00    0.49
   3   4   7    0.60    0.64
  -3  -4  -7   -0.73    0.56
  -3  -4  -7    1.77    1.07
  -3  -4  -7   -0.25    0.67
  -3  -4  -7   -0.08    0.69
   1   4   8    1.15    1.34
   1   4   8    3.91    1.11
   1   4   8    6.06    1.35
   1   4   8    3.94    0.94
  -1  -4  -8    3.38    1.07
  -1  -4  -8    6.81    1.50
  -1  -4  -8    5.39    1.16
  -1  -4  -8    5.60    1.06
  -1   4   9    0.45    0.93
  -1   4   9    0.80    0.71
  -1   4   9    0.27    0.74
   1  -4  -9    0.28    0.66
   1  -4  -9    0.33    0.54
   1  -4  -9    0.76    0.60
   1  -4  -9    1.03    0.50
  -3   4  10    0.45    0.90
  -3   4  10    0.18    0.69
  -3   4  10    0.41    0.60
  -3   4  10    0.94    0.72
  -3   4  10    1.22    0.64
   3  -4 -10    1.05    0.62
   3  -4 -10    0.33    0.74
   3  -4 -10    1.71    0.81
   3  -4 -10    1.21    0.50
   3  -4 -10    0.23    0.70
  -5   4  11   -0.37    0.51
  -5   4  11   -1.59    0.76
  -5   4  11    0.75    0.93
  -5   4  11    0.19    0.66
   5  -4 -11    1.42    0.92
   5  -4 -11   -0.04    0.76
   5  -4 -11   -0.01    0.62
   5  -4 -11    0.30    0.70
   4   5   6   -0.60    0.86
   4   5   6    0.73    0.79
   4   5   6   -0.12    0.75
   4   5   6    1.12    1.06
  -4  -5  -6    0.35    0.87
  -4  -5  -6    0.45    0.99
  -4  -5  -6    1.38    0.86
   2   5   7    1.23    0.88
   2   5   7   -0.14    1.31
   2   5   7    0.36    0.79
   2   5   7    1.40    0.77
  -2  -5  -7    0.52    0.62
  -2  -5  -7   -1.04    0.72
  -2  -5  -7    0.67    0.66
  -2  -5  -7    0.36    0.71
   0   5   8    1.46    0.63
   0   5   8    0.53    0.72
   0   5   8    0.64    0.76
   0   5   8    1.17    1.56
   0  -5  -8    0.96    0.53
   0  -5  -8    0.35    0.70
   0  -5  -8    1.17    0.67
   0  -5  -8    1.61    0.90
   0  -5  -8    1.25    0.76
  -2   5   9   -0.23    0.60
  -2   5   9    0.22    0.54
  -2   5   9    0.25    0.66
  -2   5   9    0.65    0.52
   2  -5  -9    0.81    0.41
   2  -5  -9   -0.12    0.63
   2  -5  -9    0.60    0.59
   2  -5  -9    1.10    0.63
   2  -5  -9   -0.31    0.53
  -4   5  10    2.31    0.87
  -4   5  10    2.27    0.95
  -4   5  10    1.77    0.66
  -4   5  10    3.03    1.00
   4  -5 -10    2.14    0.81
   4  -5 -10    1.32    0.73
   4  -5 -10    2.98    0.97
   4  -5 -10    3.08    1.12
  -6   5  11    4.91    2.26
  -6   5  11    2.17    0.99
   6  -5 -11    0.15    0.75
   6  -5 -11    2.85    0.96
   3   6   6   -0.76    0.90
   3   6   6    0.66    1.01
   3   6   6    1.25    0.90
   3   6   6    0.80    1.51
  -3  -6  -6    0.09    0.88
  -3  -6  -6   -0.91    0.82
  -3  -6  -6   -0.84    0.81
   1   6   7    0.10    0.78
   1   6   7   -1.93    1.27
   1   6   7    0.02    0.64
   1   6   7    0.01    0.53
  -1  -6  -7    0.34    0.73
  -1  -6  -7    1.08    0.76
  -1  -6  -7    0.17    0.57
  -1   6   8    1.29    0.67
  -1   6   8    0.71    0.70
  -1   6   8   -0.31    0.84
  -1   6   8   -0.38    0.69
   1  -6  -8   -0.27    0.58
   1  -6  -8   -0.26    0.50
   1  -6  -8   -1.19    0.60
   1  -6  -8    0.52    0.55
   1  -6  -8    0.15    0.45
  -3   6   9    4.98    1.41
  -3   6   9    2.21    0.59
  -3   6   9    3.75    1.07
  -3   6   9    2.32    0.66
  -3   6   9    3.21    1.19
   3  -6  -9    2.57    1.00
   3  -6  -9    2.91    0.83
   3  -6  -9    4.33    1.19
   3  -6  -9    2.68    1.06
  -5   6  10    0.25    0.71
  -5   6  10    0.59    0.65
  -5   6  10    0.88    0.83
   5  -6 -10    3.56    1.11
   5  -6 -10    0.65    0.69
   5  -6 -10    1.18    0.81
   2   7   6    6.64    1.85
   2   7   6    2.99    1.15
   2   7   6    2.47    0.96
   2   7   6    1.32    1.01
  -2  -7  -6    3.02    1.14
  -2  -7  -6    4.81    1.26
   0   7   7    0.48    0.95
   0   7   7    0.53    0.76
   0   7   7    0.47    0.69
   0   7   7   -0.12    0.78
   0  -7  -7    0.53    0.84
   0  -7  -7    1.89    0.91
   0  -7  -7   -0.24    0.50
  -2   7   8    0.41    0.89
  -2   7   8    0.88    0.73
  -2   7   8   -0.06    0.66
   2  -7  -8   -1.59    0.64
   2  -7  -8    0.01    0.85
   2  -7  -8    0.11    0.39
   2  -7  -8   -0.57    0.75
   2  -7  -8   -0.07    0.78
  -4   7   9    0.53    1.00
  -4   7   9    1.30    0.94
  -4   7   9    1.43    0.84
   4  -7  -9    0.11    0.67
   4  -7  -9   -1.12    0.73
   4  -7  -9    0.48    0.69
  -6   7  10    1.81    1.11
  -6   7  10    0.41    0.69
  -6   7  10   -0.95    1.06
   6  -7 -10    0.83    1.28
   6  -7 -10    3.06    1.22
   6  -7 -10    1.70    0.91
   1   8   6    0.36    1.16
   1   8   6    0.81    0.79
   1   8   6    1.83    1.15
   1   8   6    1.94    1.02
  -1  -8  -6    2.35    0.85
  -1  -8  -6    2.73    1.04
  -1   8   7    1.91    0.88
  -1   8   7    1.95    1.04
  -1   8   7    1.22    0.80
  -1   8   7    0.91    0.73
   1  -8  -7    0.80    1.05
   1  -8  -7    2.11    0.99
   1  -8  -7    0.78    0.68
   1  -8  -7    1.42    0.72
  -3   8   8    2.89    1.22
  -3   8   8    0.75    1.08
   3  -8  -8   -0.06    0.72
   3  -8  -8    1.45    1.19
  -5   8   9    2.32    1.12
  -5   8   9    1.58    1.01
   5  -8  -9    1.09    1.01
   5  -8  -9    2.41    1.54
   5  -8  -9    1.28    0.98
   0   9   6   -1.46    0.89
  -2   9   7    1.02    0.88
  -2   9   7    0.82    1.11
  -2   9   7    0.13    0.85
  -2   9   7    2.09    0.84
   2  -9  -7    0.30    1.03
   2  -9  -7   -0.87    0.60
   2  -9  -7    0.75    0.74
  -4   9   8    2.16    1.32
  -4   9   8    2.21    1.12
  -4   9   8    1.66    1.05
   4  -9  -8    4.35    1.49
   4  -9  -8    2.61    1.49
   4  -9  -8    0.91    0.89
   4  -4  11   -0.47    0.92
  -4   4 -11   -0.23    0.91
  -4   4 -11   -1.29    0.97
  -4   4 -11    0.52    0.96
   2  -4  12   -1.45    0.83
   2  -4  12    1.13    0.99
  -2   4 -12   -0.44    0.67
  -2   4 -12    0.28    0.74
  -2   4 -12    1.23    1.04
  -2   4 -12   -0.56    0.74
   0  -4  13    0.01    0.79
   0  -4  13    1.07    1.08
   0  -4  13    1.08    0.76
   0   4 -13    2.42    0.91
   0   4 -13    0.92    0.72
   0   4 -13    0.88    0.84
   5  -3  10    3.28    1.24
   5  -3  10    2.98    1.32
  -5   3 -10    6.12    1.71
  -5   3 -10    4.60    1.29
   3  -3  11    3.36    1.20
   3  -3  11    1.31    1.04
  -3   3 -11    0.77    0.62
  -3   3 -11    2.49    0.97
  -3   3 -11    0.55    0.89
  -3   3 -11    2.24    1.06
   1  -3  12    0.37    0.80
  -1   3 -12    0.23    0.88
  -1   3 -12    0.33    0.84
  -1   3 -12   -0.28    0.64
  -1   3 -12    0.19    0.59
  -1  -3  13    1.01    1.04
  -1  -3  13    0.43    0.99
  -1  -3  13    0.27    1.00
   1   3 -13   -0.16    0.83
   1   3 -13    2.36    0.86
   1   3 -13    1.70    1.03
   1   3 -13    0.16    0.74
   4  -2  10    3.01    1.26
   4  -2  10    3.30    1.30
  -4   2 -10    4.39    1.10
  -4   2 -10    2.86    1.10
   2  -2  11    1.08    0.62
   2  -2  11    1.11    0.73
  -2   2 -11    0.85    0.57
  -2   2 -11    1.75    1.01
  -2   2 -11    1.35    0.82
  -2   2 -11   -0.15    0.57
   0  -2  12   -0.95    0.69
   0  -2  12    0.03    0.90
   0   2 -12    0.62    0.81
   0   2 -12    0.82    0.68
   0   2 -12   -1.28    0.57
   0   2 -12   -0.76    0.62
  -2  -2  13    5.30    1.39
  -2  -2  13    6.06    1.39
  -2  -2  13    4.35    1.22
   2   2 -13    6.28    1.55
   2   2 -13    6.38    1.37
   2   2 -13    5.27    1.40
   5  -1   9   -1.16    0.82
   5  -1   9    0.77    0.96
  -5   1  -9   -0.78    0.87
  -5   1  -9   -0.42    0.71
   3  -1  10   -0.62    0.71
   3  -1  10   -0.42    0.56
  -3   1 -10    0.28    0.60
  -3   1 -10    0.42    0.67
  -3   1 -10   -0.08    0.66
  -3   1 -10   -0.28    0.44
   1  -1  11   11.08    1.86
   1  -1  11    8.28    1.62
   1  -1  11   10.80    1.73
  -1   1 -11    9.84    1.78
  -1   1 -11   10.16    1.80
  -1   1 -11   11.44    1.46
  -1   1 -11    9.07    1.12
  -1   1 -11    9.54    1.39
  -1  -1  12    2.20    1.04
  -1  -1  12    1.30    0.76
  -1  -1  12    0.49    0.87
  -1  -1  12   -0.02    0.69
   1   1 -12    2.05    0.91
   1   1 -12    1.13    0.66
   1   1 -12    0.36    0.74
   1   1 -12    0.60    0.67
  -3  -1  13    1.13    0.85
  -3  -1  13   -0.61    0.71
  -3  -1  13   -0.08    0.65
   3   1 -13    0.52    0.69
   3   1 -13   -0.46    0.79
   3   1 -13    0.70    0.59
   4   0   9   -0.43    0.39
   4   0   9    0.48    0.86
  -4   0  -9    0.79    0.69
  -4   0  -9    0.14    0.74
  -4   0  -9    0.22    0.79
   2   0  10    1.08    0.72
   2   0  10    1.21    0.62
   2   0  10    1.17    0.89
  -2   0 -10    0.59    1.02
  -2   0 -10    0.86    0.68
  -2   0 -10    1.29    0.65
  -2   0 -10    2.14    0.83
   0   0  11    3.20    1.14
   0   0  11    4.67    0.95
   0   0  11    5.77    1.42
   0   0 -11    3.79    0.98
   0   0 -11    3.30    1.15
   0   0 -11    4.83    1.15
   0   0 -11    5.12    1.19
   0   0 -11    4.31    1.08
  -2   0  12    0.41    0.70
  -2   0  12    1.35    0.73
  -2   0  12    0.16    0.59
  -2   0  12    0.80    0.87
   2   0 -12    1.02    0.73
   2   0 -12    1.93    0.75
   2   0 -12    0.92    0.67
   2   0 -12    1.24    0.63
  -4   0  13    1.77    1.17
  -4   0  13   -0.14    0.77
   4   0 -13    2.47    0.78
   4   0 -13    0.90    0.79
   4   0 -13    0.71    0.86
   4   0 -13    0.45    0.84
   5   1   8    0.53    0.80
   5   1   8    0.77    0.98
   5   1   8    0.28    0.86
  -5  -1  -8   -0.20    0.87
  -5  -1  -8    0.30    0.86
  -5  -1  -8    0.51    0.90
   3   1   9    3.83    1.10
   3   1   9    2.50    1.04
   3   1   9    2.14    0.62
  -3  -1  -9    1.96    0.83
  -3  -1  -9    2.78    0.65
  -3  -1  -9    3.55    1.15
  -3  -1  -9    2.47    1.00
   1   1  10    3.69    1.16
   1   1  10    2.45    1.01
   1   1  10    1.91    0.87
  -1  -1 -10    2.06    0.78
  -1  -1 -10    4.03    1.19
  -1  -1 -10    3.10    0.88
  -1  -1 -10    2.34    0.95
  -1   1  11    0.16    0.72
  -1   1  11    1.04    0.57
  -1   1  11   -0.44    0.81
   1  -1 -11    0.52    0.60
   1  -1 -11    0.79    0.63
   1  -1 -11    0.15    0.64
   1  -1 -11   -1.10    0.53
  -3   1  12   -0.31    0.54
  -3   1  12   -0.49    0.63
  -3   1  12   -0.34    0.63
  -3   1  12   -0.32    0.60
   3  -1 -12    0.59    0.75
   3  -1 -12    0.71    0.83
   3  -1 -12   -0.09    0.48
   3  -1 -12   -0.17    0.40
  -5   1  13    0.91    0.71
  -5   1  13   -0.89    0.77
  -5   1  13    1.99    0.97
   5  -1 -13    0.72    0.65
   5  -1 -13    0.92    0.94
   5  -1 -13    0.79    0.96
   4   2   8    0.94    0.71
   4   2   8    0.24    0.56
   4   2   8    1.60    0.96
   4   2   8    1.43    0.94
  -4  -2  -8    1.88    1.02
  -4  -2  -8    0.78    0.90
  -4  -2  -8   -0.50    0.60
  -4  -2  -8    0.16    1.04
   2   2   9    0.34    0.47
   2   2   9    0.31    0.48
   2   2   9   -0.16    0.58
   2   2   9    0.27    0.56
  -2  -2  -9    0.29    0.72
  -2  -2  -9   -0.39    0.66
  -2  -2  -9    0.11    0.53
  -2  -2  -9    0.78    0.60
   0   2  10    5.31    1.15
   0   2  10    7.14    1.54
   0   2  10    5.05    1.26
   0  -2 -10    6.02    1.22
   0  -2 -10    4.46    1.16
   0  -2 -10    6.32    1.33
   0  -2 -10    5.95    1.15
   0  -2 -10    4.67    0.53
   0  -2 -10    6.21    0.62
  -2   2  11    0.01    0.68
  -2   2  11    1.23    0.61
  -2   2  11    0.76    0.58
  -2   2  11    1.12    0.88
   2  -2 -11    0.77    0.58
   2  -2 -11    0.09    0.60
   2  -2 -11    1.82    0.64
   2  -2 -11    1.01    0.64
   2  -2 -11    2.64    0.56
  -4   2  12    1.45    1.14
  -4   2  12   -0.24    0.77
  -4   2  12   -0.20    0.68
  -4   2  12   -0.45    0.69
   4  -2 -12   -0.65    0.49
   4  -2 -12    0.45    0.56
   4  -2 -12    0.90    0.59
   4  -2 -12    0.06    0.70
   3   3   8    0.51    0.89
   3   3   8   -0.38    0.62
   3   3   8    0.46    0.66
   3   3   8    0.35    0.71
  -3  -3  -8   -0.87    0.69
  -3  -3  -8    0.42    0.89
  -3  -3  -8    0.42    0.61
  -3  -3  -8   -1.25    0.78
   1   3   9    8.51    1.67
   1   3   9    6.00    0.80
   1   3   9    8.72    1.45
   1   3   9    4.40    1.22
  -1  -3  -9    7.86    1.53
  -1  -3  -9    8.35    1.41
  -1  -3  -9    6.91    1.31
  -1  -3  -9    7.34    0.97
  -1  -3  -9    6.10    0.75
  -1  -3  -9    6.42    1.38
  -1   3  10    4.71    1.16
  -1   3  10    2.25    0.99
  -1   3  10    3.22    0.93
   1  -3 -10    1.46    0.79
   1  -3 -10    2.19    0.62
   1  -3 -10    3.60    0.98
   1  -3 -10    2.59    0.76
   1  -3 -10    2.05    0.59
   1  -3 -10    4.11    0.94
  -3   3  11    1.83    0.85
  -3   3  11    1.61    0.71
  -3   3  11    0.43    0.67
   3  -3 -11    1.28    0.75
   3  -3 -11    1.03    0.54
   3  -3 -11    1.65    0.98
   3  -3 -11    0.65    0.59
   3  -3 -11    2.60    1.03
  -5   3  12    0.60    1.01
  -5   3  12    0.91    0.86
  -5   3  12    1.43    0.72
  -5   3  12    1.37    0.99
   5  -3 -12    0.49    0.94
   5  -3 -12    0.29    0.90
   5  -3 -12    0.60    0.71
   5  -3 -12    0.79    0.63
   4   4   7    2.13    1.01
   4   4   7   -0.37    0.86
   4   4   7    1.60    1.03
   4   4   7    0.93    1.06
  -4  -4  -7    1.51    0.94
  -4  -4  -7    3.42    1.15
  -4  -4  -7    2.91    1.30
  -4  -4  -7    2.98    1.11
   2   4   8   -0.64    0.70
   2   4   8   -1.35    0.53
   2   4   8    1.00    0.84
   2   4   8   -0.92    0.71
  -2  -4  -8   -0.68    0.70
  -2  -4  -8    0.12    0.55
  -2  -4  -8   -1.09    0.68
  -2  -4  -8    0.50    0.76
   0   4   9    1.68    0.76
   0   4   9    3.82    0.99
   0   4   9    4.04    1.18
   0  -4  -9    1.15    0.74
   0  -4  -9    1.44    0.82
   0  -4  -9    2.70    0.88
   0  -4  -9    3.28    0.87
   0  -4  -9    2.29    0.61
  -2   4  10    0.65    0.71
  -2   4  10    0.23    0.54
  -2   4  10   -0.32    0.52
   2  -4 -10   -0.55    0.45
   2  -4 -10    0.67    0.75
   2  -4 -10   -0.61    0.64
   2  -4 -10   -0.37    0.41
   2  -4 -10   -0.45    0.62
  -4   4  11    7.25    1.68
  -4   4  11    3.36    0.81
  -4   4  11    4.55    1.17
   4  -4 -11    5.08    1.35
   4  -4 -11    4.47    1.26
   4  -4 -11    5.29    1.01
   4  -4 -11    4.71    1.21
  -6   4  12    4.64    1.26
  -6   4  12    3.26    1.19
  -6   4  12    3.33    1.37
   6  -4 -12    2.68    1.05
   6  -4 -12    2.44    1.25
   6  -4 -12    2.35    0.89
   3   5   7    1.54    0.87
   3   5   7    1.97    1.14
   3   5   7    2.14    1.31
   3   5   7    3.94    1.16
  -3  -5  -7    3.03    1.29
  -3  -5  -7    1.50    0.92
  -3  -5  -7    2.28    1.08
  -3  -5  -7    1.65    1.09
   1   5   8   -0.97    0.63
   1   5   8    0.62    0.69
   1   5   8    0.02    0.64
   1   5   8    1.93    0.96
  -1  -5  -8    0.73    0.77
  -1  -5  -8    0.13    0.71
  -1  -5  -8    0.31    0.60
  -1  -5  -8    0.14    0.70
  -1   5   9   -0.04    0.64
  -1   5   9   -0.76    0.86
  -1   5   9    0.16    0.55
   1  -5  -9   -0.43    0.53
   1  -5  -9    0.08    0.82
   1  -5  -9    0.20    0.49
   1  -5  -9    0.47    0.76
   1  -5  -9    0.21    0.70
  -3   5  10    0.32    0.57
  -3   5  10   -0.14    0.72
  -3   5  10    0.31    0.55
  -3   5  10    0.83    0.71
   3  -5 -10   -0.34    0.62
   3  -5 -10   -0.81    0.74
   3  -5 -10    0.57    0.38
   3  -5 -10   -0.66    0.78
   3  -5 -10    1.33    0.89
  -5   5  11    0.14    0.74
  -5   5  11   -0.59    0.55
  -5   5  11   -0.67    0.88
   5  -5 -11   -0.11    1.08
   5  -5 -11    1.45    0.97
   5  -5 -11    0.21    0.71
   5  -5 -11    1.13    1.11
   2   6   7   -0.26    0.91
   2   6   7    3.57    1.09
   2   6   7   -0.71    0.58
   2   6   7    0.58    0.88
  -2  -6  -7   -0.64    0.75
  -2  -6  -7    0.06    0.69
  -2  -6  -7    0.36    0.93
   0   6   8    0.63    0.68
   0   6   8    1.15    0.70
   0   6   8    1.29    0.92
   0   6   8   -0.25    0.68
   0  -6  -8    1.51    0.95
   0  -6  -8    0.77    0.76
   0  -6  -8    0.49    0.76
   0  -6  -8    0.65    0.80
   0  -6  -8    1.19    0.70
  -2   6   9    0.38    0.61
  -2   6   9    0.58    0.65
  -2   6   9    0.67    0.77
   2  -6  -9    0.04    0.50
   2  -6  -9    1.47    0.90
   2  -6  -9   -1.09    0.52
   2  -6  -9    0.55    0.43
   2  -6  -9    2.07    1.00
  -4   6  10    0.41    0.97
  -4   6  10    0.16    0.85
   4  -6 -10   -0.76    1.04
   4  -6 -10    2.69    0.97
  -6   6  11    5.77    1.56
   6  -6 -11    6.00    1.51
   1   7   7   -0.55    1.13
   1   7   7    0.08    0.79
   1   7   7   -0.09    0.73
   1   7   7    0.48    0.65
  -1  -7  -7    0.03    0.84
  -1  -7  -7    0.51    0.82
  -1  -7  -7   -1.00    0.81
  -1   7   8    0.82    0.84
  -1   7   8    0.10    0.80
  -1   7   8    0.21    0.87
  -1   7   8    0.03    0.80
   1  -7  -8    1.09    0.82
   1  -7  -8    0.12    0.57
   1  -7  -8    1.37    0.94
   1  -7  -8    0.30    0.66
  -3   7   9    2.15    0.91
  -3   7   9   -0.56    0.66
   3  -7  -9    0.41    0.89
   3  -7  -9    1.02    0.97
   3  -7  -9   -0.33    0.62
  -5   7  10    1.54    0.94
  -5   7  10    1.42    0.93
   5  -7 -10    1.66    0.96
   5  -7 -10    2.15    1.08
   0   8   7    0.86    0.86
   0   8   7    0.21    0.93
   0   8   7    0.50    0.92
   0   8   7    0.49    0.99
   0  -8  -7    1.83    1.07
   0  -8  -7    1.30    0.72
   0  -8  -7    1.12    0.87
  -2   8   8   -0.68    0.74
  -2   8   8    1.08    0.90
  -2   8   8   -1.35    0.89
   2  -8  -8    0.20    0.99
   2  -8  -8   -0.25    0.75
   2  -8  -8    1.21    0.89
  -4   8   9    1.16    0.98
  -4   8   9   -1.03    0.59
  -4   8   9   -0.20    0.89
   4  -8  -9    0.84    0.94
   4  -8  -9   -0.69    0.87
  -3   9   8    0.32    0.88
  -3   9   8    2.93    1.41
   3  -9  -8    0.60    0.88
   3  -9  -8    1.84    1.20
   3  -9  -8    5.05    1.54
   3  -4  12   -0.92    1.02
   3  -4  12    1.56    1.16
  -3   4 -12   -1.81    0.93
   1  -4  13    0.85    1.08
   1  -4  13    0.49    0.91
   1  -4  13   -0.64    0.97
  -1   4 -13    0.29    0.82
  -1   4 -13   -0.36    0.80
   4  -3  11    1.12    0.96
   4  -3  11    0.25    0.61
  -4   3 -11    0.62    1.06
  -4   3 -11    0.55    0.75
   2  -3  12    2.06    1.18
   2  -3  12    5.32    1.38
  -2   3 -12    1.83    0.77
  -2   3 -12    4.36    1.23
  -2   3 -12    2.87    1.12
  -2   3 -12    2.37    1.15
   0  -3  13    1.07    1.06
   0  -3  13    3.97    1.25
   0  -3  13    0.85    1.02
   0   3 -13    0.77    0.70
   0   3 -13    0.22    0.94
   0   3 -13    0.75    0.93
   0   3 -13    0.29    0.64
   3  -2  11    1.33    0.86
   3  -2  11    0.19    0.64
  -3   2 -11    1.55    0.90
  -3   2 -11    0.27    0.90
  -3   2 -11   -0.26    0.76
   1  -2  12    2.69    1.22
   1  -2  12    3.19    1.39
  -1   2 -12    2.82    1.15
  -1   2 -12    2.60    0.84
  -1   2 -12    2.23    0.86
  -1   2 -12    1.98    0.90
  -1  -2  13   -1.62    0.70
  -1  -2  13    0.92    0.89
  -1  -2  13    1.08    0.85
   1   2 -13    0.87    0.96
   1   2 -13   -0.51    0.71
   1   2 -13    0.15    0.83
   1   2 -13   -0.50    0.65
  -3  -2  14    4.17    1.31
   4  -1  10    0.00    0.79
   4  -1  10   -0.99    0.91
  -4   1 -10    0.21    0.86
  -4   1 -10   -0.15    0.98
  -4   1 -10   -0.99    0.80
   2  -1  11    1.22    1.01
  -2   1 -11    1.55    0.83
  -2   1 -11    0.88    0.85
  -2   1 -11    0.70    0.87
  -2   1 -11    0.71    0.70
   0  -1  12    1.57    1.16
   0  -1  12    1.33    0.96
   0   1 -12    2.80    1.10
   0   1 -12    1.70    0.87
   0   1 -12    1.50    0.90
   0   1 -12    1.83    0.88
  -2  -1  13    3.01    1.25
  -2  -1  13    1.29    0.95
   2   1 -13    1.98    0.98
   2   1 -13    1.49    1.05
   2   1 -13    0.63    0.84
   2   1 -13    0.83    0.64
   5   0   9    0.48    0.97
   5   0   9    0.85    1.32
  -5   0  -9   -0.64    1.07
  -5   0  -9    0.34    0.95
  -5   0  -9    0.83    1.03
   3   0  10    1.26    0.91
  -3   0 -10   -0.39    0.83
  -3   0 -10    1.06    0.74
  -3   0 -10    0.22    0.55
  -3   0 -10    0.36    0.81
   1   0  11    4.75    1.12
   1   0  11    2.68    1.02
   1   0  11    2.65    0.99
  -1   0 -11    1.28    0.93
  -1   0 -11    3.66    1.13
  -1   0 -11    2.40    0.98
  -1   0 -11    3.40    0.89
  -1   0  12    0.46    0.67
  -1   0  12    0.81    0.71
  -1   0  12    0.49    0.70
   1   0 -12    0.50    1.32
   1   0 -12   -0.01    0.72
   1   0 -12    1.66    0.88
  -3   0  13    0.12    0.83
  -3   0  13   -0.24    1.04
   3   0 -13    0.45    0.89
   3   0 -13    0.51    0.87
   3   0 -13   -0.63    0.71
   4   1   9    0.80    0.67
   4   1   9    2.10    0.97
   4   1   9   -0.52    0.64
  -4  -1  -9   -0.56    0.82
  -4  -1  -9   -0.34    0.84
  -4  -1  -9    0.14    0.88
   2   1  10    0.47    0.56
   2   1  10    2.01    0.90
   2   1  10    1.01    0.74
  -2  -1 -10    0.41    0.53
  -2  -1 -10    1.25    0.85
  -2  -1 -10    0.46    0.70
  -2  -1 -10   -0.02    0.53
   0   1  11    3.84    1.15
   0   1  11    1.38    0.74
   0   1  11    4.02    1.22
   0  -1 -11    3.58    0.85
   0  -1 -11    3.92    1.13
   0  -1 -11    3.41    1.07
   0  -1 -11    4.01    1.05
  -2   1  12    1.56    0.61
  -2   1  12    0.28    0.69
  -2   1  12   -0.24    0.47
  -2   1  12    0.01    0.62
   2  -1 -12    1.03    0.82
   2  -1 -12   -0.16    0.63
   2  -1 -12   -0.04    0.49
   2  -1 -12   -0.02    0.32
   2  -1 -12    1.53    0.78
  -4   1  13    1.83    0.91
  -4   1  13   -0.66    0.80
   4  -1 -13   -0.16    0.80
   4  -1 -13   -0.25    0.77
   4  -1 -13    0.09    0.57
   4  -1 -13    0.25    0.94
   3   2   9   -0.38    0.66
   3   2   9    0.98    0.86
   3   2   9   -0.89    0.67
   3   2   9    0.56    0.63
  -3  -2  -9    0.54    0.84
  -3  -2  -9    0.74    0.66
  -3  -2  -9   -0.67    0.71
   1   2  10    0.71    0.72
   1   2  10    0.15    0.65
   1   2  10    0.64    0.86
  -1  -2 -10    0.22    0.35
  -1  -2 -10    1.01    0.44
  -1  -2 -10   -0.04    0.72
  -1  -2 -10   -0.07    0.64
  -1  -2 -10   -0.05    0.60
  -1   2  11    1.75    0.82
  -1   2  11    1.88    0.98
  -1   2  11    1.16    0.76
   1  -2 -11    0.86    0.68
   1  -2 -11    0.58    0.55
   1  -2 -11    1.24    0.72
   1  -2 -11    0.96    0.36
   1  -2 -11    0.16    0.66
   1  -2 -11    0.77    0.41
  -3   2  12    0.05    0.79
  -3   2  12    1.55    0.75
  -3   2  12    1.02    0.81
  -3   2  12    0.51    0.66
   3  -2 -12    0.77    0.53
   3  -2 -12    0.49    0.72
   3  -2 -12    0.43    0.84
   3  -2 -12    1.80    0.95
  -5   2  13    2.92    1.48
  -5   2  13    1.53    1.04
  -5   2  13    3.30    1.30
   5  -2 -13    3.18    1.23
   5  -2 -13    2.45    0.93
   5  -2 -13    0.75    1.08
   5  -2 -13    1.70    0.90
   4   3   8    0.47    0.96
   4   3   8    1.49    1.09
   4   3   8    1.94    0.96
  -4  -3  -8    0.02    0.93
  -4  -3  -8   -0.17    0.64
  -4  -3  -8    1.00    0.98
   2   3   9    0.56    0.59
   2   3   9   -0.59    0.64
   2   3   9    1.61    0.75
   2   3   9   -0.47    0.83
  -2  -3  -9   -1.20    0.63
  -2  -3  -9    1.03    0.64
  -2  -3  -9    0.56    0.80
  -2  -3  -9    0.58    0.73
   0   3  10   -0.18    0.80
   0   3  10    0.54    0.83
   0   3  10    0.29    0.62
   0  -3 -10    0.26    0.61
   0  -3 -10    0.34    0.67
   0  -3 -10    1.35    0.79
   0  -3 -10    1.17    0.67
   0  -3 -10    0.66    0.47
   0  -3 -10    0.26    0.75
  -2   3  11   -1.35    0.75
  -2   3  11    0.18    0.72
  -2   3  11   -0.10    0.46
   2  -3 -11   -0.22    0.68
   2  -3 -11    0.97    0.85
   2  -3 -11   -0.30    0.47
   2  -3 -11    0.32    0.74
   2  -3 -11   -1.07    0.71
  -4   3  12    0.42    0.67
  -4   3  12   -0.48    0.76
  -4   3  12   -0.03    0.78
  -4   3  12    0.78    0.91
   4  -3 -12    0.41    0.81
   4  -3 -12    0.23    0.87
   4  -3 -12    1.09    0.96
   4  -3 -12   -0.32    0.56
   3   4   8    2.83    1.13
   3   4   8    3.33    1.23
   3   4   8    3.70    1.13
   3   4   8    1.52    1.06
  -3  -4  -8    0.98    0.93
  -3  -4  -8    2.02    0.98
  -3  -4  -8    1.95    1.18
  -3  -4  -8    1.08    0.94
   1   4   9    4.76    1.24
   1   4   9    2.69    1.14
   1   4   9    2.59    0.73
   1   4   9    2.78    1.00
  -1  -4  -9    1.84    0.70
  -1  -4  -9    4.09    1.06
  -1  -4  -9    3.17    1.09
  -1  -4  -9    3.96    0.90
  -1  -4  -9    2.75    1.11
  -1   4  10   -0.17    0.51
  -1   4  10    0.84    0.94
  -1   4  10    0.43    0.77
   1  -4 -10    0.27    0.50
   1  -4 -10    1.58    0.61
   1  -4 -10    1.92    0.82
  -3   4  11   -0.12    1.00
  -3   4  11    0.94    1.02
  -3   4  11   -0.36    0.61
   3  -4 -11    2.18    1.00
   3  -4 -11    0.82    0.57
   3  -4 -11    4.41    1.17
   3  -4 -11    0.27    1.47
  -5   4  12    0.55    0.98
  -5   4  12   -0.10    0.70
  -5   4  12    0.30    0.90
   5  -4 -12   -1.22    0.60
   5  -4 -12   -0.79    1.02
   5  -4 -12   -1.84    0.90
   5  -4 -12    0.07    0.74
   2   5   8    1.04    0.89
   2   5   8    0.30    0.85
   2   5   8    0.53    0.85
   2   5   8    1.25    1.01
  -2  -5  -8    1.39    1.00
  -2  -5  -8    1.18    0.88
  -2  -5  -8    1.40    0.88
   0   5   9   -0.19    0.65
   0   5   9   -0.16    0.61
   0   5   9    0.19    0.62
   0   5   9    1.06    0.93
   0  -5  -9   -0.16    0.73
   0  -5  -9    0.29    0.58
   0  -5  -9   -0.18    0.58
   0  -5  -9    0.05    0.74
   0  -5  -9    0.43    0.88
  -2   5  10    0.65    0.80
  -2   5  10    1.58    1.03
  -2   5  10   -0.79    0.74
   2  -5 -10   -0.75    0.69
   2  -5 -10   -0.66    0.69
   2  -5 -10   -0.21    0.45
   2  -5 -10    0.05    0.48
   2  -5 -10   -0.44    0.83
  -4   5  11    3.87    1.29
  -4   5  11    1.30    0.90
  -4   5  11    0.47    0.84
   4  -5 -11    1.02    0.91
   4  -5 -11    0.14    0.62
   4  -5 -11    0.76    0.99
   4  -5 -11   -0.19    0.80
   1   6   8   -1.07    0.68
   1   6   8   -1.30    0.70
   1   6   8   -1.51    0.84
  -1  -6  -8    2.63    0.95
  -1  -6  -8    0.34    1.44
  -1  -6  -8   -0.07    0.84
  -1  -6  -8   -0.51    0.63
  -1   6   9    1.87    0.85
  -1   6   9    2.61    1.18
  -1   6   9    1.68    0.89
   1  -6  -9    1.34    0.75
   1  -6  -9    0.50    0.93
   1  -6  -9    0.31    0.86
   1  -6  -9    0.79    0.76
   1  -6  -9    1.65    0.71
  -3   6  10   -0.75    0.68
  -3   6  10    0.83    0.98
  -3   6  10    1.83    1.20
  -3   6  10    0.67    0.79
   3  -6 -10   -0.61    0.69
   3  -6 -10    4.89    1.48
   3  -6 -10   -1.56    0.80
   3  -6 -10    0.57    0.69
  -5   6  11    1.60    0.98
  -5   6  11    0.62    1.23
  -5   6  11    2.48    1.04
   5  -6 -11    1.02    1.51
   5  -6 -11    1.49    1.06
   5  -6 -11    1.76    0.79
   0   7   8    1.63    0.93
   0   7   8    0.90    0.89
   0   7   8   -0.24    1.13
   0   7   8   -0.80    0.71
   0  -7  -8    1.36    1.04
   0  -7  -8    0.17    0.77
   0  -7  -8    1.72    0.91
   0  -7  -8    0.14    0.75
  -2   7   9    3.85    1.19
  -2   7   9    2.08    0.92
   2  -7  -9   -0.55    0.81
   2  -7  -9    0.36    0.80
   2  -7  -9    2.13    1.24
   2  -7  -9    2.67    0.62
  -4   7  10    0.95    1.10
  -4   7  10   -0.04    0.80
  -4   7  10   -0.58    0.76
   4  -7 -10    0.29    1.00
   4  -7 -10    0.14    1.07
   4  -7 -10    0.02    0.72
  -1   8   8    1.33    1.19
  -1   8   8    2.57    1.06
  -1   8   8    1.55    1.02
   1  -8  -8    0.59    0.87
   1  -8  -8    1.38    0.99
   1  -8  -8    0.95    0.73
  -3   8   9    1.82    1.03
  -3   8   9    0.90    0.75
  -3   8   9   -0.06    0.75
   3  -8  -9    1.26    0.92
   3  -8  -9    1.03    1.11
   3  -3  12    2.24    1.12
   3  -3  12    4.11    1.49
  -3   3 -12    4.39    1.42
   1  -3  13    1.55    1.54
   1  -3  13    0.85    0.99
  -1   3 -13   -0.67    0.68
  -1   3 -13   -0.21    0.79
  -1   3 -13    0.16    0.96
  -1   3 -13    1.91    1.18
   4  -2  11   -0.67    0.91
  -4   2 -11    0.95    1.06
   2  -2  12    2.81    1.22
  -2   2 -12    7.03    1.69
  -2   2 -12    3.92    1.06
  -2   2 -12    1.93    0.79
  -2   2 -12    1.23    0.98
   0  -2  13    0.77    1.02
   0  -2  13   -0.05    1.02
   0  -2  13    0.01    0.90
   0   2 -13    0.38    0.69
   0   2 -13    1.59    1.05
   0   2 -13    0.55    0.69
   0   2 -13    2.20    1.04
  -2  -2  14   -0.06    1.01
  -2  -2  14    1.23    1.25
  -2  -2  14    1.01    1.02
   2   2 -14   -0.34    0.78
   2   2 -14    0.15    0.66
   3  -1  11    0.92    0.98
   3  -1  11   -0.59    0.83
  -3   1 -11   -0.40    0.81
  -3   1 -11    1.42    0.95
  -3   1 -11    0.76    0.71
   1  -1  12   -0.14    0.81
   1  -1  12    0.53    0.93
  -1   1 -12    0.47    0.68
  -1   1 -12    0.51    0.83
  -1   1 -12    0.80    0.91
  -1   1 -12    0.77    0.92
  -1  -1  13    0.42    0.68
  -1  -1  13   -1.32    0.72
  -1  -1  13    2.00    1.10
   1   1 -13   -0.08    0.69
   1   1 -13    0.32    0.62
   1   1 -13   -0.58    0.64
   1   1 -13    0.57    0.68
  -3  -1  14    2.24    1.40
  -3  -1  14   -0.20    1.00
  -3  -1  14    1.50    1.19
   3   1 -14    0.56    0.99
   3   1 -14   -0.92    0.92
   4   0  10    1.05    0.94
   4   0  10    1.74    1.11
  -4   0 -10    1.28    0.99
  -4   0 -10    0.48    0.86
  -4   0 -10    1.42    1.16
   2   0  11    0.00    0.88
   2   0  11    0.01    0.83
  -2   0 -11   -0.96    0.86
  -2   0 -11   -0.43    0.62
  -2   0 -11    0.40    0.81
  -2   0 -11    0.79    0.82
   0   0  12    0.31    0.95
   0   0 -12   -0.09    0.76
   0   0 -12    0.69    0.79
   0   0 -12    0.39    0.65
   0   0 -12    0.30    0.65
  -2   0  13   -0.21    0.85
  -2   0  13   -0.55    0.71
  -2   0  13    1.28    1.07
   2   0 -13    0.01    0.73
   2   0 -13    0.07    0.60
   2   0 -13   -0.31    0.52
   2   0 -13   -1.04    0.62
   3   1  10    0.91    0.71
   3   1  10    0.73    0.96
  -3  -1 -10   -0.31    0.74
  -3  -1 -10    2.51    0.79
  -3  -1 -10    0.25    1.02
  -3  -1 -10    1.40    1.00
   1   1  11    0.42    0.99
   1   1  11   -0.22    0.95
  -1  -1 -11    0.92    0.71
  -1  -1 -11    0.44    0.84
  -1  -1 -11    0.37    0.57
  -1  -1 -11    1.59    0.89
  -1   1  12    2.58    1.12
  -1   1  12    0.64    0.73
   1  -1 -12    1.27    0.84
   1  -1 -12    2.16    1.02
   1  -1 -12    3.21    1.17
  -3   1  13    1.27    1.19
  -3   1  13    1.16    0.93
  -3   1  13   -0.13    0.80
   3  -1 -13    1.32    0.92
   3  -1 -13    1.61    0.92
   4   2   9    0.23    0.96
   4   2   9    1.59    1.05
   4   2   9    1.64    1.11
  -4  -2  -9    1.32    1.04
  -4  -2  -9    1.30    1.07
  -4  -2  -9   -0.46    1.00
   2   2  10   -0.12    0.63
   2   2  10    0.44    0.70
  -2  -2 -10    1.08    0.54
  -2  -2 -10    0.93    0.69
  -2  -2 -10    0.70    0.91
  -2  -2 -10    0.49    0.62
  -2  -2 -10    0.33    0.58
   0   2  11   -0.17    0.53
   0   2  11   -0.26    0.68
   0   2  11    0.70    0.67
   0  -2 -11    0.10    0.68
   0  -2 -11    0.33    0.73
   0  -2 -11   -0.01    0.59
   0  -2 -11    0.89    0.89
  -2   2  12    3.97    0.96
  -2   2  12    2.69    1.02
  -2   2  12    4.50    1.15
   2  -2 -12    2.25    0.92
   2  -2 -12    3.62    0.83
   2  -2 -12    2.59    0.56
   2  -2 -12    3.28    1.16
   2  -2 -12    3.51    1.10
  -4   2  13    2.83    1.01
  -4   2  13    0.40    0.99
  -4   2  13    0.76    1.07
   4  -2 -13    2.19    0.97
   4  -2 -13    0.89    0.76
   4  -2 -13    0.08    0.82
   4  -2 -13    0.04    0.70
   3   3   9   -2.02    0.87
   3   3   9   -0.05    1.09
   3   3   9   -0.51    0.64
  -3  -3  -9    0.11    0.69
  -3  -3  -9    1.46    1.17
  -3  -3  -9    1.54    0.97
  -3  -3  -9   -0.45    1.01
   1   3  10    1.71    1.07
   1   3  10    3.32    1.20
   1   3  10    2.15    1.04
  -1  -3 -10    1.69    0.85
  -1  -3 -10    1.31    0.77
  -1  -3 -10    3.41    1.22
  -1  -3 -10    2.11    0.67
  -1  -3 -10    2.79    0.85
  -1   3  11   -0.03    0.49
  -1   3  11    0.20    0.77
  -1   3  11    1.28    0.92
   1  -3 -11    0.21    0.57
   1  -3 -11    0.22    0.50
   1  -3 -11    0.63    0.85
   1  -3 -11    0.62    0.73
   1  -3 -11    1.97    0.70
  -3   3  12   -0.16    0.79
  -3   3  12    0.86    0.83
  -3   3  12    0.89    0.85
  -3   3  12    1.10    0.76
   3  -3 -12    0.85    0.68
   3  -3 -12    0.28    0.86
   3  -3 -12   -0.41    0.77
   3  -3 -12    0.93    0.90
  -5   3  13    3.02    0.94
   2   4   9    0.50    0.73
   2   4   9   -1.95    0.71
   2   4   9   -0.23    0.91
   2   4   9    0.13    0.87
  -2  -4  -9    0.87    0.94
  -2  -4  -9    1.33    0.75
  -2  -4  -9    0.29    0.83
  -2  -4  -9   -0.36    0.82
   0   4  10    1.20    0.86
   0   4  10    1.79    0.92
   0   4  10    1.70    1.03
   0  -4 -10    2.18    0.82
   0  -4 -10    1.49    0.82
   0  -4 -10    1.41    0.63
   0  -4 -10    2.25    0.94
  -2   4  11    2.47    0.94
  -2   4  11    2.44    1.14
   2  -4 -11    4.44    1.20
   2  -4 -11    2.91    1.02
   2  -4 -11    1.80    0.73
   2  -4 -11    2.56    0.74
   2  -4 -11    2.73    1.19
  -4   4  12    1.87    0.98
  -4   4  12    0.82    0.87
  -4   4  12    0.84    0.65
   4  -4 -12   -1.23    0.67
   4  -4 -12    0.26    0.68
   4  -4 -12    3.21    1.13
   4  -4 -12    3.71    1.00
   1   5   9    1.33    1.08
   1   5   9   -0.21    0.82
   1   5   9    0.14    0.69
  -1  -5  -9   -0.41    0.62
  -1  -5  -9   -0.05    0.87
  -1  -5  -9   -0.05    0.80
  -1  -5  -9   -0.57    0.77
  -1   5  10    0.16    0.80
  -1   5  10    1.19    1.13
  -1   5  10   -0.22    0.83
   1  -5 -10    0.79    0.82
   1  -5 -10    0.25    0.60
   1  -5 -10   -0.30    0.74
   1  -5 -10    0.36    0.53
   1  -5 -10    0.77    0.94
  -3   5  11   -0.12    0.75
  -3   5  11   -0.10    0.74
  -3   5  11    0.59    0.78
  -3   5  11   -0.50    0.70
   3  -5 -11    1.68    1.07
   3  -5 -11   -0.98    0.86
   3  -5 -11    0.15    0.66
   3  -5 -11   -0.86    0.88
   3  -5 -11    0.41    0.48
  -5   5  12    2.98    1.04
  -5   5  12    2.80    1.35
   5  -5 -12    3.62    1.32
   5  -5 -12    1.70    1.03
   2   6   8   -0.52    0.85
   2   6   8   -0.04    1.18
  -2  -6  -8   -0.15    0.80
   0   6   9   -0.39    0.98
   0   6   9   -0.22    0.63
   0   6   9   -0.69    0.60
   0   6   9    0.64    0.90
   0  -6  -9    1.12    1.00
   0  -6  -9    0.43    0.74
   0  -6  -9   -0.73    0.53
   0  -6  -9   -0.32    0.63
  -2   6  10    1.66    0.94
  -2   6  10    1.62    1.06
  -2   6  10    0.74    1.15
   2  -6 -10    2.40    1.10
   2  -6 -10    1.95    0.70
   2  -6 -10    2.16    1.13
  -4   6  11    0.17    0.75
  -4   6  11   -1.15    0.76
   4  -6 -11    1.89    1.07
   4  -6 -11    0.60    0.91
   4  -6 -11    1.12    1.05
  -1   7   9    0.23    1.02
  -1   7   9    0.70    0.92
  -1   7   9   -0.02    1.16
   1  -7  -9    1.66    0.85
   1  -7  -9    1.24    0.93
   1  -7  -9    2.05    0.68
   1  -7  -9    0.38    1.10
  -3   7  10    0.45    1.20
  -3   7  10    1.27    0.96
  -3   7  10    2.54    1.13
   3  -7 -10    1.72    0.91
   3  -7 -10    1.75    1.21
   3  -7 -10    0.99    0.99
  -2   8   9   -0.58    1.20
   1  -2  13    0.32    0.93
  -1   2 -13    0.18    1.00
  -1   2 -13   -0.32    0.71
  -1   2 -13   -0.45    0.81
  -1   2 -13    1.19    0.99
  -1  -2  14    4.96    1.99
   2  -1  12    1.45    0.97
   2  -1  12   -0.28    0.67
  -2   1 -12   -1.37    0.72
  -2   1 -12   -0.72    0.67
  -2   1 -12   -0.89    0.82
   0  -1  13   -0.34    1.08
   0  -1  13    0.72    0.97
   0   1 -13    1.61    1.05
   0   1 -13    1.85    0.99
   0   1 -13    1.07    0.85
   0   1 -13    0.06    0.86
  -2  -1  14    2.32    1.68
  -2  -1  14    1.10    0.95
  -2  -1  14    1.04    0.95
   2   1 -14    0.98    1.04
   2   1 -14   -0.11    0.92
   2   1 -14    1.33    1.18
   2   1 -14   -0.13    0.93
   3   0  11    0.48    1.02
  -3   0 -11   -1.02    0.83
  -3   0 -11    0.66    0.99
  -3   0 -11   -1.14    0.57
   1   0  12   -0.16    0.63
   1   0  12    0.27    0.64
  -1   0 -12    0.35    0.73
  -1   0 -12   -0.26    0.87
  -1   0 -12   -0.89    0.84
  -1   0 -12   -0.19    0.60
  -1   0  13    0.81    0.66
  -1   0  13    0.82    0.97
  -1   0  13   -0.14    0.70
   1   0 -13    1.42    0.92
   1   0 -13    1.51    0.88
   1   0 -13    0.72    0.90
   1   0 -13    1.46    0.80
  -3   0  14    2.94    1.62
  -3   0  14    1.02    1.09
  -3   0  14    1.30    0.86
   2   1  11    1.07    0.91
   2   1  11    0.25    0.73
  -2  -1 -11   -0.48    0.72
  -2  -1 -11   -0.23    0.85
  -2  -1 -11    0.19    0.70
  -2  -1 -11    0.75    0.91
   0   1  12    0.48    0.93
   0   1  12    1.03    0.85
   0  -1 -12    0.66    0.81
   0  -1 -12    1.44    1.09
   0  -1 -12   -0.01    0.95
   0  -1 -12    1.48    0.83
  -2   1  13    0.77    1.19
  -2   1  13   -1.24    0.60
  -2   1  13    0.43    0.81
   2  -1 -13   -0.79    0.84
   2  -1 -13    0.26    0.66
   2  -1 -13   -0.50    0.71
   2  -1 -13    1.20    0.97
   3   2  10    0.63    0.78
   3   2  10   -1.25    0.86
  -3  -2 -10    0.69    0.80
  -3  -2 -10   -0.77    0.90
  -3  -2 -10   -0.94    0.57
  -3  -2 -10    1.84    1.06
   1   2  11    1.79    0.99
   1   2  11    1.10    0.99
   1   2  11   -1.66    0.65
  -1  -2 -11    0.20    0.57
  -1  -2 -11    0.39    0.85
  -1  -2 -11   -0.14    0.65
  -1  -2 -11    0.02    0.62
  -1   2  12    0.90    0.72
  -1   2  12   -0.54    0.80
  -1   2  12    1.36    1.06
   1  -2 -12    1.19    0.75
   1  -2 -12   -0.40    0.89
   1  -2 -12   -0.04    0.66
   1  -2 -12    0.02    0.54
  -3   2  13   -1.33    1.07
  -3   2  13   -1.08    0.77
  -3   2  13   -0.25    0.79
   3  -2 -13    0.63    0.87
   3  -2 -13    1.02    0.95
   3  -2 -13   -0.43    0.92
   2   3  10    2.51    1.13
   2   3  10    1.25    0.78
   2   3  10    4.50    1.42
  -2  -3 -10    3.44    0.99
  -2  -3 -10    4.90    1.19
  -2  -3 -10    1.62    1.01
   0   3  11    2.88    1.05
   0   3  11    1.55    0.82
   0   3  11    1.96    0.97
   0  -3 -11    1.60    1.08
   0  -3 -11    1.01    0.63
   0  -3 -11    1.62    0.81
  -2   3  12    1.04    1.02
  -2   3  12   -0.70    0.87
  -2   3  12    3.06    1.19
  -2   3  12   -0.46    0.59
   2  -3 -12    1.05    0.67
   2  -3 -12   -0.04    0.79
   2  -3 -12   -1.28    0.79
   2  -3 -12    2.37    0.86
   2  -3 -12   -1.14    0.54
  -4   3  13    0.21    1.09
  -4   3  13    0.98    0.90
  -4   3  13    1.84    0.99
   4  -3 -13    2.34    1.06
   4  -3 -13    1.38    1.18
   4  -3 -13   -0.40    0.78
   1   4  10   -0.50    0.80
   1   4  10    1.19    0.91
   1   4  10    0.79    0.84
  -1  -4 -10    0.33    0.82
  -1  -4 -10    2.64    0.96
  -1  -4 -10    0.44    0.91
  -1  -4 -10    2.10    1.03
  -1  -4 -10    1.36    0.62
  -1   4  11    4.90    1.45
  -1   4  11    2.79    1.12
  -1   4  11    3.55    1.11
   1  -4 -11    1.89    0.77
   1  -4 -11    2.00    0.80
   1  -4 -11    3.43    1.12
   1  -4 -11    2.68    1.11
   1  -4 -11    3.57    1.18
  -3   4  12   -1.51    0.92
  -3   4  12    1.20    0.95
  -3   4  12   -0.09    0.82
  -3   4  12   -0.13    0.82
   3  -4 -12    0.19    0.99
   3  -4 -12   -0.12    0.67
   3  -4 -12    1.92    1.03
   3  -4 -12    2.21    0.79
   3  -4 -12    0.40    0.98
   2   5   9    2.99    1.13
   2   5   9    0.65    1.26
   2   5   9    0.58    0.90
  -2  -5  -9   -0.86    0.87
  -2  -5  -9    1.23    1.03
  -2  -5  -9    0.12    0.98
   0   5  10    3.59    1.21
   0   5  10    4.02    1.21
   0   5  10    4.44    1.46
   0  -5 -10    1.66    0.87
   0  -5 -10    2.37    1.04
   0  -5 -10    3.10    1.12
   0  -5 -10    2.26    0.92
   0  -5 -10    3.64    1.19
  -2   5  11   -2.32    1.05
  -2   5  11    0.59    0.90
  -2   5  11    0.98    0.85
   2  -5 -11    0.67    0.86
   2  -5 -11    1.50    1.20
   2  -5 -11   -0.49    0.71
   2  -5 -11    0.82    0.57
   2  -5 -11   -0.39    0.92
  -4   5  12    1.10    1.07
  -4   5  12    1.79    1.07
  -4   5  12    0.75    0.84
   4  -5 -12    0.64    0.69
   4  -5 -12   -0.26    0.69
   1   6   9    0.60    0.74
  -1  -6  -9    0.23    0.88
  -1  -6  -9    0.02    0.96
  -1  -6  -9    0.55    0.72
  -1  -6  -9   -0.41    0.81
  -1   6  10    0.36    1.27
  -1   6  10    1.57    0.98
  -1   6  10   -0.69    0.76
   1  -6 -10    0.04    0.76
   1  -6 -10    0.82    0.68
   1  -6 -10    2.90    1.23
   1  -6 -10    1.74    1.11
  -3   6  11    2.45    1.17
  -3   6  11    2.61    1.25
   3  -6 -11    5.84    1.41
   3  -6 -11    2.34    1.39
  -2   7  10    0.44    0.86
  -2   7  10    0.76    1.03
  -2   7  10    0.54    1.34
   2  -7 -10    0.12    0.81
   2  -7 -10   -0.39    1.03
   1  -1  13   -0.73    0.56
   1  -1  13   -0.40    1.13
  -1   1 -13    0.53    0.93
  -1   1 -13    0.10    0.85
  -1   1 -13    1.24    1.08
  -1   1 -13    0.21    0.90
  -1  -1  14    1.98    1.46
   2   0  12    0.92    0.94
   2   0  12    1.68    1.26
  -2   0 -12   -0.09    0.65
  -2   0 -12    0.72    0.79
  -2   0 -12   -1.67    0.86
  -2   0 -12    0.88    1.02
   0   0  13   -0.14    0.55
   0   0  13    0.97    1.60
   0   0 -13   -0.30    0.79
   0   0 -13    0.20    0.87
   0   0 -13    0.96    0.91
  -2   0  14    1.00    0.89
   3   1  11    1.64    1.04
   1   1  12   -0.83    0.91
   1   1  12   -1.06    1.05
  -1  -1 -12   -1.58    0.73
  -1  -1 -12   -0.22    0.77
  -1  -1 -12    0.33    0.63
  -1  -1 -12   -0.76    0.96
  -1   1  13    0.88    0.91
  -1   1  13    1.29    0.86
   1  -1 -13    0.61    0.84
   1  -1 -13   -0.76    0.65
   1  -1 -13   -0.16    0.64
   1  -1 -13    0.03    0.58
   2   2  11   -0.94    1.02
   2   2  11   -0.05    0.89
  -2  -2 -11   -1.09    0.68
  -2  -2 -11   -0.54    0.75
  -2  -2 -11   -1.71    0.78
   0   2  12   -0.59    1.02
   0   2  12   -0.07    0.58
   0  -2 -12    0.22    0.85
   0  -2 -12   -1.01    0.76
   0  -2 -12    0.01    0.85
   0  -2 -12   -0.21    0.81
  -2   2  13    4.66    1.33
  -2   2  13    1.53    1.72
   2  -2 -13    0.93    0.65
   2  -2 -13    0.02    0.95
   2  -2 -13   -0.22    0.71
   2  -2 -13   -0.20    0.94
   1   3  11    2.28    1.19
   1   3  11   -0.41    0.86
  -1  -3 -11    0.56    0.81
  -1  -3 -11   -1.08    0.83
  -1  -3 -11    0.29    0.73
  -1  -3 -11    0.92    0.93
  -1   3  12    1.85    1.02
  -1   3  12    1.62    1.22
  -1   3  12    0.57    0.94
   1  -3 -12    0.22    0.80
   1  -3 -12    0.52    1.15
   1  -3 -12   -0.49    0.67
   1  -3 -12    0.08    0.71
  -3   3  13   -0.04    1.01
  -3   3  13    0.72    0.86
  -3   3  13   -0.55    1.16
   3  -3 -13    0.86    0.85
   3  -3 -13    1.41    1.05
   3  -3 -13   -0.21    0.79
   0   4  11    2.19    0.95
   0   4  11    2.50    1.12
   0   4  11    1.97    1.12
   0  -4 -11    1.85    0.79
   0  -4 -11    4.04    1.21
   0  -4 -11    1.89    1.14
   0  -4 -11    2.23    1.11
   0  -4 -11    0.79    0.75
  -2   4  12    0.84    0.98
  -2   4  12    0.76    0.98
   2  -4 -12    2.11    1.19
   2  -4 -12    0.50    0.93
   2  -4 -12    0.78    0.75
   2  -4 -12    1.23    0.82
   2  -4 -12    0.68    0.69
   1   5  10    1.00    0.97
   1   5  10    1.33    0.80
   1   5  10    3.42    1.40
  -1  -5 -10    1.65    1.12
  -1  -5 -10    0.03    0.78
  -1  -5 -10    0.53    0.91
  -1  -5 -10   -0.02    0.76
  -1   5  11    2.04    0.98
  -1   5  11    0.34    1.08
  -1   5  11    0.51    1.00
   1  -5 -11   -0.27    1.73
   1  -5 -11    0.51    1.14
   1  -5 -11    0.90    0.92
   1  -5 -11    1.13    0.83
  -3   5  12    3.55    1.26
  -3   5  12   -0.05    0.97
  -3   5  12    2.68    1.13
   3  -5 -12    2.83    1.01
   3  -5 -12    3.83    1.41
   3  -5 -12    3.80    1.39
   0   6  10   -0.88    1.18
  -2   6  11    2.78    1.24
  -2   6  11    0.74    1.28
   2  -6 -11    0.15    0.88
   2  -6 -11    0.13    0.93
   2  -6 -11    2.87    1.08
   1   0  13    1.49    1.35
   0   1  13    0.18    1.11
   0   1  13    1.63    1.04
   0  -1 -13   -0.56    0.78
   0  -1 -13   -0.94    0.86
   0  -1 -13   -0.54    0.90
   0  -1 -13   -0.42    0.91
   1   2  12   -0.37    1.03
   1   2  12    2.58    1.40
  -1  -2 -12    0.24    0.93
  -1  -2 -12    1.53    1.02
  -1  -2 -12    1.66    0.91
  -1  -2 -12    1.33    1.04
  -1   2  13    1.93    1.00
  -1   2  13   -0.49    1.03
   1  -2 -13    0.99    0.96
   1  -2 -13   -0.50    0.83
   1  -2 -13   -0.71    0.77
   0   3  12    1.23    1.26
   0  -3 -12    1.31    0.79
   0  -3 -12    1.50    0.85
   0  -3 -12    1.11    1.07
   0  -3 -12    1.84    1.24
  -2   3  13   -0.40    1.00
  -2   3  13    1.14    0.80
  -2   3  13    0.55    0.87
   2  -3 -13    2.56    0.96
   2  -3 -13    0.87    1.17
   2  -3 -13   -0.46    0.95
   2  -3 -13   -0.07    0.86
  -1   4  12   -0.34    1.02
  -1   4  12   -1.50    1.17
  -1   4  12    0.98    1.19
   1  -4 -12    2.26    0.98
   1  -4 -12    2.55    1.12
   1  -4 -12    1.21    1.00
   1  -4 -12   -1.05    0.91
   0   0   0    0.00    0.00
;
_shelx_hkl_checksum              21645
loop_
_space_group_symop_operation_xyz
'x, y, z'
'-x, -y, -z'
loop_
_atom_site_label
_atom_site_type_symbol
_atom_site_fract_x
_atom_site_fract_y
_atom_site_fract_z
_atom_site_U_iso_or_equiv
_atom_site_adp_type
_atom_site_occupancy
_atom_site_site_symmetry_order
_atom_site_calc_flag
_atom_site_refinement_flags_posn
_atom_site_refinement_flags_adp
_atom_site_refinement_flags_occupancy
_atom_site_disorder_assembly
_atom_site_disorder_group
O1 O 0.5930(7) 0.2429(6) 0.1631(5) 0.0504(13) Uani 1 1 d . . . . .
C4 C 0.7532(9) 0.0857(6) 0.2778(6) 0.0329(13) Uani 1 1 d . . . . .
N1 N 0.8822(7) 0.3721(5) 0.3383(5) 0.0328(11) Uani 1 1 d . . . . .
H1 H 0.8404 0.3810 0.4049 0.039 Uiso 1 1 calc R U . . .
C16 C 1.0470(9) 0.4813(7) 0.3243(6) 0.0346(13) Uani 1 1 d . . . . .
C9 C 0.7823(9) 0.2391(7) 0.2315(6) 0.0341(13) Uani 1 1 d . . . . .
C2 C 0.5630(10) -0.1174(8) 0.3681(7) 0.0444(16) Uani 1 1 d . . . . .
H2 H 0.4514 -0.1632 0.3952 0.053 Uiso 1 1 calc R U . . .
C3 C 0.5857(8) 0.0167(7) 0.3161(6) 0.0360(14) Uani 1 1 d . . . . .
C1 C 0.7022(10) -0.1845(7) 0.3809(6) 0.0403(15) Uani 1 1 d . . . . .
C6 C 0.8681(11) -0.1135(8) 0.3421(7) 0.0456(16) Uani 1 1 d . . . . .
H6 H 0.9636 -0.1566 0.3507 0.055 Uiso 1 1 calc R U . . .
C10 C 0.9105(10) 0.2792(7) 0.1434(6) 0.0408(15) Uani 1 1 d . . . . .
C5 C 0.8948(10) 0.0202(7) 0.2909(6) 0.0394(14) Uani 1 1 d . . . . .
H5 H 1.0075 0.0666 0.2650 0.047 Uiso 1 1 calc R U . . .
C7 C 0.4380(10) 0.0846(8) 0.2960(8) 0.0482(17) Uani 1 1 d . . . . .
H7 H 0.3384 0.0554 0.3363 0.058 Uiso 1 1 calc R U . . .
C14 C 1.2057(11) 0.4889(9) 0.1352(7) 0.0483(17) Uani 1 1 d . . . . .
H14 H 1.3087 0.5857 0.1717 0.058 Uiso 1 1 calc R U . . .
C15 C 1.0661(9) 0.4232(7) 0.1974(6) 0.0372(14) Uani 1 1 d . . . . .
C8 C 0.4451(10) 0.1883(8) 0.2200(8) 0.0505(18) Uani 1 1 d . . . . .
H8 H 0.3444 0.2260 0.2044 0.061 Uiso 1 1 calc R U . . .
C11 C 0.8933(13) 0.1978(9) 0.0244(7) 0.055(2) Uani 1 1 d . . . . .
H11 H 0.7907 0.1010 -0.0127 0.066 Uiso 1 1 calc R U . . .
C13 C 1.1873(14) 0.4056(11) 0.0162(8) 0.063(2) Uani 1 1 d . . . . .
H13 H 1.2806 0.4458 -0.0274 0.076 Uiso 1 1 calc R U . . .
C12 C 1.0326(16) 0.2643(11) -0.0374(8) 0.070(3) Uani 1 1 d . . . . .
H12 H 1.0215 0.2118 -0.1181 0.084 Uiso 1 1 calc R U . . .
C17 C 0.6740(13) -0.3317(9) 0.4373(9) 0.062(2) Uani 1 1 d . . . . .
H17A H 0.7066 -0.4036 0.3858 0.093 Uiso 1 1 calc R U . . .
H17B H 0.5389 -0.3803 0.4374 0.093 Uiso 1 1 calc R U . . .
H17C H 0.7587 -0.3044 0.5243 0.093 Uiso 1 1 calc R U . . .
O2 O 1.1566(7) 0.6020(5) 0.4020(5) 0.0477(12) Uani 1 1 d . . . . .
loop_
_atom_site_aniso_label
_atom_site_aniso_U_11
_atom_site_aniso_U_22
_atom_site_aniso_U_33
_atom_site_aniso_U_23
_atom_site_aniso_U_13
_atom_site_aniso_U_12
O1 0.048(3) 0.049(3) 0.053(3) 0.018(2) 0.004(2) 0.022(2)
C4 0.039(3) 0.028(3) 0.033(3) 0.005(2) 0.008(2) 0.017(2)
N1 0.038(3) 0.025(2) 0.037(3) 0.006(2) 0.017(2) 0.011(2)
C16 0.040(3) 0.027(3) 0.038(3) 0.005(2) 0.014(3) 0.011(2)
C9 0.038(3) 0.030(3) 0.033(3) 0.005(2) 0.008(2) 0.014(2)
C2 0.039(3) 0.037(3) 0.060(4) 0.014(3) 0.016(3) 0.015(3)
C3 0.029(3) 0.031(3) 0.044(3) 0.006(3) 0.007(2) 0.009(2)
C1 0.044(3) 0.030(3) 0.045(4) 0.007(3) 0.008(3) 0.016(3)
C6 0.059(4) 0.047(4) 0.044(4) 0.013(3) 0.018(3) 0.033(3)
C10 0.060(4) 0.033(3) 0.034(3) 0.012(2) 0.016(3) 0.020(3)
C5 0.042(3) 0.039(3) 0.046(3) 0.011(3) 0.018(3) 0.021(3)
C7 0.034(3) 0.042(4) 0.072(5) 0.014(3) 0.017(3) 0.017(3)
C14 0.055(4) 0.052(4) 0.050(4) 0.021(3) 0.026(3) 0.025(3)
C15 0.045(3) 0.034(3) 0.042(3) 0.015(3) 0.020(3) 0.020(3)
C8 0.042(4) 0.040(4) 0.070(5) 0.011(3) 0.007(3) 0.022(3)
C11 0.091(6) 0.042(4) 0.036(3) 0.006(3) 0.023(4) 0.027(4)
C13 0.089(6) 0.083(6) 0.053(4) 0.036(4) 0.044(5) 0.052(5)
C12 0.115(8) 0.067(5) 0.039(4) 0.014(4) 0.034(5) 0.041(6)
C17 0.064(5) 0.041(4) 0.084(6) 0.028(4) 0.021(4) 0.022(4)
O2 0.051(3) 0.035(2) 0.048(3) 0.004(2) 0.023(2) 0.002(2)
loop_
_atom_type_symbol
_atom_type_description
_atom_type_scat_dispersion_real
_atom_type_scat_dispersion_imag
_atom_type_scat_source
C C 0.0033 0.0016 'International Tables Vol C Tables 4.2.6.8 and 6.1.1.4'
H H 0.0000 0.0000 'International Tables Vol C Tables 4.2.6.8 and 6.1.1.4'
N N 0.0061 0.0033 'International Tables Vol C Tables 4.2.6.8 and 6.1.1.4'
O O 0.0106 0.0060 'International Tables Vol C Tables 4.2.6.8 and 6.1.1.4'
loop_
_geom_angle_atom_site_label_1
_geom_angle_atom_site_label_2
_geom_angle_atom_site_label_3
_geom_angle
_geom_angle_site_symmetry_1
_geom_angle_site_symmetry_3
_geom_angle_publ_flag
C8 O1 C9 115.3(5) . . ?
C3 C4 C5 120.0(5) . . ?
C3 C4 C9 117.8(5) . . ?
C5 C4 C9 122.0(5) . . ?
C16 N1 C9 114.1(5) . . ?
O2 C16 N1 126.0(5) . . ?
O2 C16 C15 127.8(6) . . ?
N1 C16 C15 106.2(5) . . ?
N1 C9 O1 108.9(5) . . ?
N1 C9 C10 102.1(5) . . ?
O1 C9 C10 106.1(5) . . ?
N1 C9 C4 111.2(5) . . ?
O1 C9 C4 110.9(5) . . ?
C10 C9 C4 116.9(5) . . ?
C1 C2 C3 121.7(6) . . ?
C4 C3 C2 118.9(6) . . ?
C4 C3 C7 118.3(6) . . ?
C2 C3 C7 122.7(6) . . ?
C6 C1 C2 118.3(6) . . ?
C6 C1 C17 120.8(6) . . ?
C2 C1 C17 120.9(6) . . ?
C5 C6 C1 121.1(6) . . ?
C11 C10 C15 120.0(6) . . ?
C11 C10 C9 130.3(6) . . ?
C15 C10 C9 109.7(5) . . ?
C6 C5 C4 119.9(6) . . ?
C8 C7 C3 119.7(6) . . ?
C15 C14 C13 117.7(7) . . ?
C14 C15 C10 121.7(6) . . ?
C14 C15 C16 130.5(6) . . ?
C10 C15 C16 107.9(5) . . ?
C7 C8 O1 123.3(6) . . ?
C12 C11 C10 118.0(7) . . ?
C12 C13 C14 120.4(7) . . ?
C13 C12 C11 122.2(7) . . ?
loop_
_geom_bond_atom_site_label_1
_geom_bond_atom_site_label_2
_geom_bond_distance
_geom_bond_site_symmetry_2
_geom_bond_publ_flag
O1 C8 1.368(9) . ?
O1 C9 1.462(7) . ?
C4 C3 1.382(8) . ?
C4 C5 1.388(8) . ?
C4 C9 1.515(8) . ?
N1 C16 1.354(7) . ?
N1 C9 1.447(7) . ?
C16 O2 1.220(7) . ?
C16 C15 1.485(8) . ?
C9 C10 1.495(9) . ?
C2 C1 1.384(9) . ?
C2 C3 1.388(9) . ?
C3 C7 1.445(9) . ?
C1 C6 1.379(10) . ?
C1 C17 1.517(9) . ?
C6 C5 1.378(9) . ?
C10 C11 1.383(9) . ?
C10 C15 1.391(9) . ?
C7 C8 1.321(10) . ?
C14 C15 1.378(9) . ?
C14 C13 1.387(11) . ?
C11 C12 1.374(12) . ?
C13 C12 1.372(13) . ?
