#------------------------------------------------------------------------------
#$Date: 2024-02-04 13:23:38 +0200 (Sun, 04 Feb 2024) $
#$Revision: 289387 $
#$URL: file:///home/coder/svn-repositories/cod/cif/7/13/25/7132581.cif $
#------------------------------------------------------------------------------
#
# This file is available in the Crystallography Open Database (COD),
# http://www.crystallography.net/
#
# All data on this site have been placed in the public domain by the
# contributors.
#
data_7132581
loop_
_publ_author_name
'Wu, Shu-Yi'
'Li, Yang'
'Shen, Peng'
'Yang, Xin-Han'
'Ran, Guang-Yao'
_publ_section_title
;
 Palladium-catalysed fragmentary esterification-induced allylic alkylation
 of allyl carbonates and cyclic vinylogous anhydrides.
;
_journal_issue                   11
_journal_name_full               'Chemical communications (Cambridge, England)'
_journal_page_first              1416
_journal_page_last               1419
_journal_paper_doi               10.1039/d3cc05758e
_journal_volume                  60
_journal_year                    2024
_chemical_formula_moiety         'C25 H26 O5'
_chemical_formula_sum            'C25 H26 O5'
_chemical_formula_weight         406.46
_chemical_name_systematic        1
_space_group_crystal_system      triclinic
_space_group_IT_number           2
_space_group_name_Hall           '-P 1'
_space_group_name_H-M_alt        'P -1'
_atom_sites_solution_hydrogens   geom
_atom_sites_solution_primary     iterative
_audit_creation_date             2023-07-24
_audit_creation_method
;
Olex2 1.2
(compiled 2018.05.29 svn.r3508 for OlexSys, GUI svn.r5506)
;
_audit_update_record
;
2023-10-26 deposited with the CCDC.	2024-01-03 downloaded from the CCDC.
;
_cell_angle_alpha                64.873(2)
_cell_angle_beta                 69.562(2)
_cell_angle_gamma                83.168(2)
_cell_formula_units_Z            2
_cell_length_a                   10.1019(2)
_cell_length_b                   10.7180(3)
_cell_length_c                   11.1905(2)
_cell_measurement_reflns_used    4840
_cell_measurement_temperature    293(2)
_cell_measurement_theta_max      68.1260
_cell_measurement_theta_min      4.5460
_cell_volume                     1027.30(5)
_computing_cell_refinement       'CrysAlisPro 1.171.41.89a (Rigaku OD, 2020)'
_computing_data_collection       'CrysAlisPro 1.171.41.89a (Rigaku OD, 2020)'
_computing_data_reduction        'CrysAlisPro 1.171.41.89a (Rigaku OD, 2020)'
_computing_molecular_graphics    'Olex2 (Dolomanov et al., 2009)'
_computing_publication_material  'Olex2 (Dolomanov et al., 2009)'
_computing_structure_refinement  'ShelXL (Sheldrick, 2015)'
_computing_structure_solution    'olex2.solve (Bourhis et al., 2015)'
_diffrn_ambient_temperature      293
_diffrn_detector                 'Hybrid Pixel Array Detector'
_diffrn_detector_area_resol_mean 10.0000
_diffrn_measured_fraction_theta_full 0.970
_diffrn_measured_fraction_theta_max 0.959
_diffrn_measurement_details
;
List of Runs (angles in degrees, time in seconds):

  # Type    Start    End  Width  t~exp~   \w     \q     \k     \f   Frames
#--------------------------------------------------------------------------
  1  \w     89.00 132.00   0.50    0.50    --   42.30  65.00 150.00   86
  2  \w     33.00  63.00   0.50    0.50    --   42.30 -65.00 -90.00   60
  3  \w    -47.00  28.00   0.50    0.50    --   42.30 -43.00 -60.00  150
  4  \w     20.00  61.00   0.50    0.50    --   42.30 -82.00  30.00   82
  5  \w    -41.00   3.00   0.50    0.50    --   42.30 -77.00-120.00   88
  6  \w     31.00  63.00   0.50    0.50    --   42.30 -77.00 120.00   64
  7  \w    -39.00  13.00   0.50    0.50    --   42.30 -82.00  60.00  104
  8  \w    -38.00 -12.00   0.50    0.50    --   42.30 -65.00 -90.00   52
  9  \w    -39.00  22.00   0.50    0.50    --   42.30 -77.00 120.00  122
 10  \w     23.00  70.00   0.50    0.50    --   42.30 -82.00  60.00   94
 11  \w     54.00  79.00   0.50    0.50    --   42.30  65.00 150.00   50
 12  \w     11.00  66.00   0.50    0.50    --   42.30 -77.00-120.00  110
 13  \w    -36.00  25.00   0.50    0.50    --   42.30 -65.00-180.00  122
 14  \w     39.00  65.00   0.50    0.50    --   42.30 -43.00 -60.00   52
 15  \w     53.00 120.00   0.50    0.50    --   42.30  77.00-120.00  134
 16  \w     17.00  46.00   0.50    0.50    --   42.30  77.00-120.00   58
 17  \w     36.00  61.00   0.50    0.50    --   42.30 -65.00-180.00   50
 18  \w     45.00  90.00   0.50    0.50    --   93.70 -82.00 120.00   90
 19  \w    141.00 167.00   0.50    0.50    --   93.70  33.00 -60.00   52
 20  \w     60.00  88.00   0.50    0.50    --   93.70  33.00 -60.00   56
 21  \w     63.00  89.00   0.50    0.50    --   93.70  42.00   0.00   52
 22  \w      6.00 104.00   0.50    0.50    --   93.70  25.00  90.00  196
 23  \w     77.00 103.00   0.50    0.50    --   93.70 -82.00-120.00   52
 24  \w     32.00  86.00   0.50    0.50    --   93.70 -82.00  60.00  108
 25  \w      7.00 167.00   0.50    0.50    --   93.70  17.00-120.00  320
 26  \w      7.00 111.00   0.50    0.50    --   93.70 -82.00  90.00  208
 27  \w    126.00 152.00   0.50    0.50    --   93.70  68.00-180.00   52
 28  \w     94.00 119.00   0.50    0.50    --   93.70 -82.00 -60.00   50
 29  \w     15.00 110.00   0.50    0.50    --   93.70 -59.00 -60.00  190
 30  \w    142.00 167.00   0.50    0.50    --   93.70  82.00 150.00   50
 31  \w     60.00  99.00   0.50    0.50    --   93.70 -82.00   0.00   78
 32  \w    110.00 137.00   0.50    0.50    --   93.70  82.00 150.00   54
 33  \w     33.00  99.00   0.50    0.50    --   93.70 -82.00-150.00  132
 34  \w      9.00  62.00   0.50    0.50    --   93.70 -82.00 -60.00  106
 35  \w      5.00  42.00   0.50    0.50    --   93.70 -82.00   0.00   74
 36  \w     65.00 102.00   0.50    0.50    --   93.70 -82.00 150.00   74
 37  \w    124.00 181.00   0.50    0.50    --   93.70  25.00  90.00  114
 38  \w     11.00  69.00   0.50    0.50    --   93.70 -82.00-120.00  116
 39  \w      4.00 113.00   0.50    0.50    --   93.70 -50.00  90.00  218
 40  \w     70.00  95.00   0.50    0.50    --   93.70 -82.00  30.00   50
 41  \w      4.00 104.00   0.50    0.50    --   93.70 -82.00 -81.28  200
;
_diffrn_measurement_device       'four-circle diffractometer'
_diffrn_measurement_device_type  'XtaLAB Pro II AFC12 (RINC): Kappa single'
_diffrn_measurement_method       '\w scans'
_diffrn_orient_matrix_type
'CrysAlisPro convention (1999,Acta A55,543-557)'
_diffrn_orient_matrix_UB_11      -0.1480556000
_diffrn_orient_matrix_UB_12      -0.0506786000
_diffrn_orient_matrix_UB_13      0.1087106000
_diffrn_orient_matrix_UB_21      0.0448028000
_diffrn_orient_matrix_UB_22      -0.1505302000
_diffrn_orient_matrix_UB_23      0.0354492000
_diffrn_orient_matrix_UB_31      0.0508969000
_diffrn_orient_matrix_UB_32      0.0026464000
_diffrn_orient_matrix_UB_33      0.1136469000
_diffrn_radiation_monochromator  mirror
_diffrn_radiation_probe          x-ray
_diffrn_radiation_type           CuK\a
_diffrn_radiation_wavelength     1.54184
_diffrn_reflns_av_R_equivalents  0.0348
_diffrn_reflns_av_unetI/netI     0.0428
_diffrn_reflns_Laue_measured_fraction_full 0.970
_diffrn_reflns_Laue_measured_fraction_max 0.959
_diffrn_reflns_limit_h_max       12
_diffrn_reflns_limit_h_min       -11
_diffrn_reflns_limit_k_max       12
_diffrn_reflns_limit_k_min       -12
_diffrn_reflns_limit_l_max       13
_diffrn_reflns_limit_l_min       -10
_diffrn_reflns_number            8925
_diffrn_reflns_point_group_measured_fraction_full 0.970
_diffrn_reflns_point_group_measured_fraction_max 0.959
_diffrn_reflns_theta_full        67.684
_diffrn_reflns_theta_max         68.271
_diffrn_reflns_theta_min         4.559
_diffrn_source                   'micro-focus sealed X-ray tube'
_diffrn_source_type              'Rigaku (Cu) X-ray Source'
_exptl_absorpt_coefficient_mu    0.737
_exptl_absorpt_correction_T_max  1.00000
_exptl_absorpt_correction_T_min  0.02280
_exptl_absorpt_correction_type   multi-scan
_exptl_absorpt_process_details
;
CrysAlisPro 1.171.41.89a (Rigaku Oxford Diffraction, 2020)
Empirical absorption correction using spherical harmonics,
implemented in SCALE3 ABSPACK scaling algorithm.
;
_exptl_crystal_colour            'clear light colourless'
_exptl_crystal_colour_lustre     clear
_exptl_crystal_colour_modifier   light
_exptl_crystal_colour_primary    colourless
_exptl_crystal_density_diffrn    1.314
_exptl_crystal_description       block
_exptl_crystal_F_000             432
_exptl_crystal_size_max          0.06
_exptl_crystal_size_mid          0.05
_exptl_crystal_size_min          0.03
_refine_diff_density_max         0.380
_refine_diff_density_min         -0.251
_refine_diff_density_rms         0.064
_refine_ls_extinction_method     none
_refine_ls_goodness_of_fit_ref   1.073
_refine_ls_hydrogen_treatment    constr
_refine_ls_matrix_type           full
_refine_ls_number_parameters     271
_refine_ls_number_reflns         3616
_refine_ls_number_restraints     0
_refine_ls_restrained_S_all      1.073
_refine_ls_R_factor_all          0.0647
_refine_ls_R_factor_gt           0.0574
_refine_ls_shift/su_max          0.000
_refine_ls_shift/su_mean         0.000
_refine_ls_structure_factor_coef Fsqd
_refine_ls_weighting_details
'w=1/[\s^2^(Fo^2^)+(0.1001P)^2^+0.1005P] where P=(Fo^2^+2Fc^2^)/3'
_refine_ls_weighting_scheme      calc
_refine_ls_wR_factor_gt          0.1593
_refine_ls_wR_factor_ref         0.1698
_reflns_Friedel_coverage         0.000
_reflns_number_gt                2987
_reflns_number_total             3616
_reflns_threshold_expression     'I > 2\s(I)'
_cod_data_source_file            d3cc05758e2.cif
_cod_data_source_block           122_auto
_cod_depositor_comments          'Adding full bibliography for 7132581.cif.'
_cod_original_cell_volume        1027.30(4)
_cod_database_code               7132581
_shelx_shelxl_version_number     2018/3
_shelx_space_group_comment
;
The symmetry employed for this shelxl refinement is uniquely defined
by the following loop, which should always be used as a source of
symmetry information in preference to the above space-group names.
They are only intended as comments.
;
_shelx_estimated_absorpt_t_max   0.978
_shelx_estimated_absorpt_t_min   0.957
_diffrn_oxdiff_digest_frames
;
01400a72c4b50f1dd41177f7ea0a92e6c400029b88b
;
_diffrn_oxdiff_digest_hkl
;
010c1f1d239835292370000d27ab75cae3ef30
;
_reflns_odcompleteness_completeness 97.19
_reflns_odcompleteness_iscentric 1
_reflns_odcompleteness_theta     66.97
_olex2_refinement_description
;
1. Fixed Uiso
 At 1.2 times of:
  All C(H) groups, All C(H,H) groups
2.a Ternary CH refined with riding coordinates:
 C1(H1), C4(H4), C5(H5), C6(H6)
2.b Secondary CH2 refined with riding coordinates:
 C7(H7A,H7B), C10(H10A,H10B), C13(H13A,H13B), C14(H14A,H14B), C17(H17A,H17B),
 C18(H18A,H18B), C19(H19A,H19B)
2.c Aromatic/amide H refined with riding coordinates:
 C2(H2), C3(H3), C11(H11), C21(H21), C22(H22), C23(H23), C24(H24), C25(H25)
;
_shelx_res_file
;
TITL 122_auto_a.res in P-1
    122_auto.res
    created by SHELXL-2018/3 at 22:21:37 on 24-Jul-2023
REM Old TITL 122_auto in P-1
REM SHELXT solution in P-1
REM R1 0.195, Rweak 0.011, Alpha 0.053, Orientation as input
REM Formula found by SHELXT: C24 O2
CELL 1.54184 10.1019 10.718 11.1905 64.873 69.562 83.168
ZERR 2 0.0002 0.0003 0.0002 0.002 0.002 0.002
LATT 1
SFAC C H O
UNIT 50 52 10

L.S. 40
PLAN  5
SIZE 0.05 0.06 0.03
TEMP 19.85
MORE -1
BOND $H
CONF
fmap 2
acta
REM <olex2.extras>
REM <HklSrc "%.\\122_auto.hkl">
REM </olex2.extras>

WGHT    0.100100    0.100500
FVAR       1.18144
O1    3    0.427663    0.066215    0.836447    11.00000    0.05844    0.06012 =
         0.05919   -0.02140   -0.00919    0.00766
O2    3    0.306564    0.052136    0.708019    11.00000    0.08514    0.10735 =
         0.12575   -0.08455   -0.02632    0.00192
O3    3    0.433775    0.353391    0.644240    11.00000    0.05585    0.06621 =
         0.04009   -0.02641   -0.01342   -0.00330
O4    3    0.329413    0.553967    0.919836    11.00000    0.05902    0.06787 =
         0.06292   -0.03828   -0.01862    0.01626
O5    3    0.393166    0.355643    1.048426    11.00000    0.05715    0.07551 =
         0.03998   -0.02575   -0.01477    0.00354
C1    1    0.129692    0.391162    0.809444    11.00000    0.04413    0.06441 =
         0.07515   -0.03440   -0.02425    0.00520
AFIX  13
H1    2    0.151422    0.490413    0.768028    11.00000   -1.20000
AFIX   0
C2    1   -0.007273    0.341691    0.928880    11.00000    0.04078    0.09712 =
         0.09496   -0.05744   -0.01832    0.00549
AFIX  43
H2    2   -0.056837    0.386809    0.985356    11.00000   -1.20000
AFIX   0
C3    1   -0.044113    0.223473    0.938939    11.00000    0.04230    0.09597 =
         0.09448   -0.04810   -0.01501   -0.00690
AFIX  43
H3    2   -0.125016    0.170039    1.003360    11.00000   -1.20000
AFIX   0
C4    1    0.067364    0.189829    0.828150    11.00000    0.05371    0.08687 =
         0.08974   -0.05223   -0.02265   -0.00879
AFIX  13
H4    2    0.038681    0.123830    0.801573    11.00000   -1.20000
AFIX   0
C5    1    0.201259    0.153891    0.873602    11.00000    0.04834    0.05926 =
         0.05793   -0.02424   -0.01064   -0.00551
AFIX  13
H5    2    0.171794    0.089653    0.972585    11.00000   -1.20000
AFIX   0
C6    1    0.245880    0.294520    0.862009    11.00000    0.04058    0.06312 =
         0.04460   -0.02625   -0.01391   -0.00120
AFIX  13
H6    2    0.237287    0.286949    0.954841    11.00000   -1.20000
AFIX   0
C7    1    0.110607    0.334574    0.712875    11.00000    0.05993    0.09367 =
         0.07368   -0.03828   -0.03750    0.00463
AFIX  23
H7A   2    0.197645    0.337138    0.638577    11.00000   -1.20000
H7B   2    0.036348    0.378675    0.674311    11.00000   -1.20000
AFIX   0
C8    1    0.390838    0.354193    0.759443    11.00000    0.04071    0.04841 =
         0.03780   -0.01902   -0.01471    0.00363
C9    1    0.488250    0.419793    0.799591    11.00000    0.03645    0.05437 =
         0.03925   -0.02328   -0.01316    0.00310
C10   1    0.605040    0.313539    0.831926    11.00000    0.04356    0.07302 =
         0.05257   -0.03377   -0.02074    0.01551
AFIX  23
H10A  2    0.657021    0.342284    0.874804    11.00000   -1.20000
H10B  2    0.560026    0.224212    0.898802    11.00000   -1.20000
AFIX   0
C11   1    0.707266    0.299367    0.703528    11.00000    0.04241    0.06856 =
         0.05651   -0.03171   -0.01406    0.00805
AFIX  43
H11   2    0.752822    0.380778    0.631037    11.00000   -1.20000
AFIX   0
C12   1    0.741631    0.185667    0.679328    11.00000    0.04564    0.06691 =
         0.05287   -0.02766   -0.01746    0.01511
C13   1    0.678317    0.043933    0.783331    11.00000    0.06432    0.06269 =
         0.06072   -0.02256   -0.01530    0.02515
AFIX  23
H13A  2    0.749596   -0.023476    0.773523    11.00000   -1.20000
H13B  2    0.654345    0.039266    0.876997    11.00000   -1.20000
AFIX   0
C14   1    0.548490    0.004220    0.768811    11.00000    0.07009    0.05242 =
         0.08472   -0.03131   -0.00487    0.00738
AFIX  23
H14A  2    0.559397    0.036451    0.670625    11.00000   -1.20000
H14B  2    0.534964   -0.095311    0.812171    11.00000   -1.20000
AFIX   0
C15   1    0.314969    0.087845    0.793168    11.00000    0.06088    0.05403 =
         0.07000   -0.02620   -0.01088   -0.00910
C16   1    0.403715    0.440332    0.932583    11.00000    0.03666    0.05846 =
         0.04766   -0.03005   -0.01431    0.00130
C17   1    0.367311    0.681296    0.794463    11.00000    0.08307    0.05790 =
         0.08288   -0.03390   -0.03259    0.01499
AFIX  23
H17A  2    0.430320    0.736326    0.802930    11.00000   -1.20000
H17B  2    0.282439    0.732767    0.788209    11.00000   -1.20000
AFIX   0
C18   1    0.437548    0.661852    0.661622    11.00000    0.06981    0.05236 =
         0.06373   -0.01604   -0.02503   -0.00113
AFIX  23
H18A  2    0.479069    0.749140    0.585932    11.00000   -1.20000
H18B  2    0.367693    0.630914    0.637815    11.00000   -1.20000
AFIX   0
C19   1    0.550827    0.557304    0.678360    11.00000    0.04693    0.06143 =
         0.05079   -0.02228   -0.01207   -0.00634
AFIX  23
H19A  2    0.623842    0.591027    0.696113    11.00000   -1.20000
H19B  2    0.593788    0.544054    0.592540    11.00000   -1.20000
AFIX   0
C20   1    0.847092    0.197032    0.541247    11.00000    0.04603    0.06956 =
         0.05571   -0.03076   -0.02030    0.01917
C21   1    0.957462    0.293353    0.469241    11.00000    0.05280    0.08995 =
         0.06499   -0.04268   -0.01578    0.00656
AFIX  43
H21   2    0.967001    0.351671    0.508185    11.00000   -1.20000
AFIX   0
C22   1    1.053981    0.306565    0.342102    11.00000    0.05312    0.09386 =
         0.06994   -0.03452   -0.00838    0.00415
AFIX  43
H22   2    1.128139    0.371677    0.297580    11.00000   -1.20000
AFIX   0
C23   1    1.041010    0.223450    0.280512    11.00000    0.06504    0.10038 =
         0.05713   -0.03634   -0.01365    0.02796
AFIX  43
H23   2    1.104823    0.233051    0.193605    11.00000   -1.20000
AFIX   0
C24   1    0.933871    0.127612    0.348584    11.00000    0.07701    0.10396 =
         0.07965   -0.06146   -0.02444    0.02630
AFIX  43
H24   2    0.924366    0.070927    0.307902    11.00000   -1.20000
AFIX   0
C25   1    0.838077    0.112651    0.478030    11.00000    0.06207    0.07857 =
         0.07759   -0.04654   -0.01551    0.01117
AFIX  43
H25   2    0.766388    0.044881    0.523496    11.00000   -1.20000
AFIX   0
HKLF 4




REM  122_auto_a.res in P-1
REM wR2 = 0.1698, GooF = S = 1.073, Restrained GooF = 1.073 for all data
REM R1 = 0.0574 for 2987 Fo > 4sig(Fo) and 0.0647 for all 3616 data
REM 271 parameters refined using 0 restraints

END

WGHT      0.1001      0.1005

REM Highest difference peak  0.380,  deepest hole -0.251,  1-sigma level  0.064
Q1    1   0.9957 -0.0807  0.3794  11.00000  0.05    0.38
Q2    1   0.8777 -0.0928  0.4881  11.00000  0.05    0.38
Q3    1   1.1520  0.2029  0.3999  11.00000  0.05    0.29
Q4    1   0.8969  0.1633  0.6164  11.00000  0.05    0.23
Q5    1   0.4027  0.3438  1.1884  11.00000  0.05    0.14
;
_shelx_res_checksum              7160
_shelx_hkl_file
;
   0   0   1 1004.81   47.87
   0   0   1  968.30   47.70
   0   0   1  977.70   48.10
   0   0   1  980.63   47.90
   0   0   1  982.30   48.36
   0   0   2 6924.15  329.51
   0   0   2 6859.16  329.16
   0   0   2 6558.97  328.87
   0   0   2 6805.14  328.93
   0   0   3    6.60    0.92
   0   0   3    3.55    0.90
   0   0   4    0.10    0.43
   0   0   5  238.50   13.67
   0   0   5  243.47   13.38
   0   0   6  438.08   24.15
   0   0   6  441.16   24.91
   0   0   6  487.15   24.90
   0   0   6  449.98   24.28
   0   0   7  411.99   25.01
   0   0   7  434.51   24.28
   0   0   7  427.27   24.13
   0   0   7  445.70   24.88
   0   0   7  463.80   23.52
   0   0   7  472.54   25.53
   0   0   8  240.23   16.19
   0   0   8  233.87   14.85
   0   0   8  254.26   14.27
   0   0   8  244.74   15.18
   0   0   8  264.96   15.94
   0   0   8  274.66   16.42
   0   0   9    0.51    1.13
   0   0   9    0.29    1.23
   0   0   9    0.71    0.81
   0   0  10   29.29    4.12
   0   0  10   27.37    3.64
   0   0  10   31.67    3.82
   0   0  11    1.54    1.10
   0   0  11    2.14    1.04
   0  -1  11    0.14    0.55
   0  -1  10    2.87    1.32
   0  -1  10    3.20    1.61
   0  -1  10    2.22    1.11
   0  -1   9    5.75    1.90
   0  -1   9    6.80    2.05
   0  -1   9    8.38    2.30
   0  -1   8   15.38    2.72
   0  -1   8   12.00    2.57
   0  -1   7  120.26    7.83
   0  -1   7  112.04    8.31
   0  -1   7  127.90    9.48
   0  -1   7  134.02    9.30
   0  -1   7  120.69    9.53
   0  -1   7  130.16    8.73
   0  -1   6  124.01    8.29
   0  -1   6  103.10    8.36
   0  -1   6  113.94    7.77
   0  -1   6  128.43    8.51
   0  -1   6  114.21    7.84
   0  -1   5  400.63   20.23
   0  -1   5  353.42   21.27
   0  -1   5  352.13   20.07
   0  -1   5  339.91   20.15
   0  -1   5  352.78   19.50
   0  -1   5  370.94   19.54
   0  -1   4  635.31   33.85
   0  -1   4  657.29   33.09
   0  -1   3 1130.77   55.07
   0  -1   3 1067.64   56.05
   0  -1   2 4547.46  220.47
   0  -1   2 4332.57  221.90
   0  -1   2 4572.75  220.58
   0  -1   2 4514.74  220.65
   0  -1   1 6383.39  316.76
   0   1  -1 6466.90  314.86
   0  -1   1 6536.68  315.19
   0  -1   1 6448.06  315.92
   0   1   0  577.65   28.23
   0  -1   0  557.67   30.09
   0   1   1 2166.20  100.27
   0   1   1 1978.74  100.49
   0   1   1 2023.93  100.02
   0  -1  -1 2017.72  102.91
   0  -1  -2  988.32   54.47
   0   1   2 1090.14   54.05
   0   1   2 1132.01   53.85
   0   1   2 1094.55   53.60
   0   1   2 1101.83   53.48
   0   1   3 1720.76   84.79
   0   1   3 1727.31   84.63
   0   1   3 1674.52   84.47
   0   1   3 1773.24   84.54
   0   1   4   15.78    1.67
   0   1   4   15.71    1.62
   0   1   4   17.31    1.74
   0   1   5   39.29    3.24
   0   1   6    9.58    1.60
   0   1   6    6.16    1.74
   0   1   6    4.85    1.25
   0   1   6    4.07    1.12
   0   1   6    5.52    1.32
   0   1   6    3.84    1.16
   0   1   7  215.98   14.00
   0   1   7  223.17   13.64
   0   1   7  248.15   14.09
   0   1   7  245.74   14.63
   0   1   7  246.26   14.40
   0   1   8  215.33   12.02
   0   1   8  196.39   13.65
   0   1   8  200.47   13.04
   0   1   8  217.62   13.80
   0   1   8  198.68   12.66
   0   1   8  217.60   13.59
   0   1   9    0.24    0.83
   0   1   9    2.23    1.43
   0   1   9    1.18    1.10
   0   1  10    2.46    1.35
   0   1  10    1.57    1.12
   0   1  10    2.17    1.40
   0   1  11    1.99    1.07
   0  -2  10    0.88    0.78
   0  -2   9    6.49    1.88
   0  -2   9    5.87    1.79
   0  -2   8    1.26    1.28
   0  -2   8    1.52    1.18
   0  -2   8    1.83    1.39
   0  -2   7  264.93   17.61
   0  -2   7  276.13   17.20
   0  -2   7  250.43   16.17
   0  -2   7  246.85   15.95
   0  -2   7  243.44   14.33
   0  -2   6   38.54    3.38
   0   2  -6   38.09    5.27
   0  -2   6   37.96    4.24
   0  -2   6   44.47    4.73
   0  -2   6   44.45    4.43
   0  -2   6   39.99    3.87
   0  -2   6   33.29    4.97
   0   2  -5   46.98    4.86
   0  -2   5   56.64    5.15
   0  -2   5   59.14    6.47
   0  -2   5   56.59    5.47
   0  -2   5   59.19    4.63
   0  -2   5   68.58    5.27
   0  -2   4    2.09    1.04
   0  -2   4    5.56    1.09
   0  -2   3  392.78   21.95
   0  -2   3  397.68   20.67
   0  -2   2  647.10   34.23
   0  -2   2  645.58   33.03
   0  -2   2  647.06   32.48
   0  -2   1   56.26    4.80
   0  -2   1   55.22    4.92
   0  -2   0 1243.26   63.43
   0   2   0 1263.92   60.87
   0  -2   0 1133.69   65.06
   0   2   0 1232.08   60.92
   0   2   1  900.76   45.61
   0   2   1  911.03   45.21
   0  -2  -1 1024.68   48.56
   0   2   2    0.61    0.73
   0   2   2    0.70    0.53
   0   2   2    0.53    0.25
   0   2   3   21.57    1.86
   0   2   3   23.77    1.77
   0   2   3   23.82    2.13
   0   2   4  307.82   15.69
   0   2   4  292.83   15.52
   0   2   4  301.29   15.60
   0   2   4  289.63   15.59
   0   2   5  304.57   16.33
   0   2   5  313.06   16.56
   0   2   6  390.82   21.53
   0   2   6  409.30   21.82
   0   2   6  387.51   21.42
   0   2   6  416.57   21.40
   0   2   6  412.52   21.79
   0   2   6  378.63   21.42
   0   2   6  415.68   21.87
   0   2   7    1.46    0.97
   0   2   7    0.61    0.59
   0   2   7    0.66    0.64
   0   2   7    0.16    0.62
   0   2   7    0.34    0.70
   0   2   8    1.60    0.86
   0   2   8    1.14    1.06
   0   2   8    1.84    0.99
   0   2   8    1.05    1.01
   0   2   9    0.40    0.77
   0   2   9   -0.79    1.31
   0   2   9   -0.47    1.04
   0   2  10  161.29   11.76
   0   2  10  164.95   11.31
   0   2  11    0.19    0.70
   0   2  11    0.23    0.72
   0   2  12    0.55    0.94
   0   2  12    0.26    0.53
   0  -3   9    1.24    0.84
   0  -3   8    6.92    1.96
   0  -3   8    5.84    1.90
   0  -3   7   22.57    3.61
   0  -3   7   22.23    3.77
   0  -3   7   21.19    3.47
   0  -3   7   24.49    4.27
   0  -3   6   35.33    4.31
   0  -3   6   40.36    3.46
   0  -3   6   36.46    4.82
   0   3  -6   29.79    4.68
   0  -3   6   37.36    4.28
   0  -3   6   31.99    5.05
   0  -3   6   35.91    4.37
   0  -3   5  107.16    7.70
   0  -3   5   88.37    8.71
   0  -3   5  106.68    8.29
   0  -3   5   90.93    7.21
   0  -3   5   98.39    6.08
   0  -3   5   93.20    7.35
   0  -3   4  901.73   44.02
   0  -3   4  923.23   44.44
   0   3  -4  751.97   42.11
   0  -3   4  859.05   43.17
   0  -3   4  776.01   45.43
   0  -3   3 1060.94   54.90
   0  -3   2 2006.00   99.61
   0  -3   2 1968.72   98.83
   0   3  -1 1013.86   49.61
   0  -3   1  968.83   52.10
   0  -3   1  982.95   51.79
   0   3   0 4472.04  214.79
   0  -3   0 4534.09  217.43
   0   3   0 4271.04  214.90
   0  -3   0 4610.50  220.15
   0  -3  -1 1704.74   91.94
   0   3   1 1793.19   90.30
   0   3   1 1915.31   90.07
   0   3   1 1829.56   90.81
   0   3   2 1507.93   74.08
   0   3   3  916.02   48.03
   0   3   3  953.45   46.70
   0   3   4  726.45   36.32
   0   3   4  718.03   36.95
   0   3   5   99.12    6.27
   0   3   5  103.85    6.36
   0   3   5  101.35    6.43
   0   3   6  489.34   25.16
   0   3   6  508.61   25.71
   0   3   6  469.76   25.42
   0   3   6  463.98   25.15
   0   3   6  480.41   25.45
   0   3   6  483.81   25.35
   0   3   7  114.05    7.85
   0   3   7  100.13    7.08
   0   3   7  102.70    7.40
   0   3   7   98.84    7.02
   0   3   7  106.37    7.33
   0   3   7  109.58    7.77
   0   3   7  106.91    7.46
   0   3   7  128.88    7.82
   0   3   8   -0.41    0.88
   0   3   8   -0.20    0.76
   0   3   8   -0.51    0.76
   0   3   8    0.37    0.72
   0   3   8    1.51    1.00
   0   3   9   32.24    4.04
   0   3   9   36.11    4.36
   0   3   9   31.21    3.96
   0   3   9   40.89    4.07
   0   3  10   78.46    6.35
   0   3  10   78.51    6.76
   0   3  10   73.76    6.98
   0   3  11    0.47    0.96
   0   3  11    0.98    0.88
   0   3  12    2.06    0.85
   0  -4   9    0.63    0.70
   0  -4   8   22.27    3.27
   0  -4   7  114.61    9.86
   0  -4   7   95.57    8.31
   0   4  -7  117.63   12.04
   0  -4   7   88.07    7.79
   0  -4   6    1.64    1.27
   0  -4   6    4.93    1.68
   0   4  -6    5.23    1.96
   0  -4   6    2.32    1.80
   0  -4   5    2.78    1.64
   0  -4   5    0.38    1.55
   0  -4   5    0.72    0.97
   0  -4   5    0.50    1.15
   0   4  -5    1.83    1.05
   0   4  -4    0.39    0.50
   0  -4   4    0.84    1.14
   0  -4   4    1.14    0.88
   0  -4   4   -0.28    1.23
   0  -4   4    1.08    1.46
   0  -4   3   35.64    4.14
   0   4  -3   40.00    3.18
   0  -4   3   35.65    4.39
   0  -4   3   38.16    3.99
   0  -4   3   41.41    5.27
   0  -4   2   31.19    3.70
   0   4  -2   28.44    2.59
   0   4  -1  536.00   27.22
   0  -4   1  530.00   29.96
   0  -4   1  530.35   29.16
   0  -4   0 1022.65   55.23
   0  -4   0 1038.05   52.38
   0   4   0 1004.96   50.20
   0  -4  -1  878.43   52.45
   0   4   1  937.44   46.39
   0   4   1  865.93   45.75
   0   4   1  942.74   45.36
   0   4   2   48.83    3.94
   0   4   2   34.93    2.68
   0  -4  -2   32.94    6.80
   0   4   3 1112.60   57.89
   0   4   3 1139.17   56.08
   0   4   4 1071.98   54.00
   0   4   4 1115.26   55.56
   0   4   5  318.39   17.65
   0   4   5  321.10   17.13
   0   4   6 1024.32   49.76
   0   4   6 1006.73   50.26
   0   4   6  926.17   49.82
   0   4   6  970.65   49.73
   0   4   6 1002.77   50.14
   0   4   6  978.77   50.15
   0   4   6 1031.09   50.07
   0   4   6  949.10   49.88
   0   4   7   17.91    2.44
   0   4   7   16.79    2.30
   0   4   7   17.23    2.23
   0   4   7   14.08    2.05
   0   4   7   18.47    2.39
   0   4   8  159.45   10.56
   0   4   8  166.59   10.98
   0   4   8  158.69   10.63
   0   4   8  156.14   10.38
   0   4   8  166.55   11.01
   0   4   9   20.35    2.84
   0   4   9   20.14    3.21
   0   4   9   25.99    3.46
   0   4   9   25.50    3.55
   0   4   9   21.65    3.07
   0   4  10    5.87    1.54
   0   4  10    6.94    2.01
   0   4  10    6.42    1.91
   0   4  10    8.12    1.99
   0   4  11    4.20    1.56
   0   4  11    2.18    1.12
   0   4  12    0.28    0.51
   0   4  12    0.52    0.80
   0  -5   8    4.61    1.46
   0   5  -7   57.16    8.59
   0  -5   7   39.29    4.62
   0   5  -6   92.22    9.30
   0  -5   6  106.42    8.98
   0   5  -5   -0.22    0.49
   0  -5   5    0.50    0.72
   0  -5   5    1.56    1.42
   0  -5   5   -0.28    1.03
   0  -5   4   55.61    5.91
   0  -5   4   71.22    6.32
   0  -5   4   69.63    7.54
   0   5  -4   62.75    5.05
   0   5  -3   22.84    2.36
   0  -5   3   17.55    3.77
   0  -5   3   20.18    3.86
   0  -5   3   21.40    3.20
   0  -5   3   23.17    3.29
   0  -5   2   60.55    6.94
   0  -5   2   55.03    5.49
   0   5  -2   64.70    4.46
   0  -5   2   69.32    5.93
   0  -5   2   61.24    6.51
   0  -5   1   47.17    5.80
   0  -5   1   56.81    5.21
   0  -5   1   59.86    5.91
   0   5  -1   56.36    4.00
   0   5   0   26.36    2.25
   0  -5   0   30.63    4.69
   0   5   1   42.64    3.97
   0   5   1   46.66    3.19
   0  -5  -1   45.14    6.65
   0   5   2   96.78    5.98
   0  -5  -2   94.76   10.83
   0   5   2   99.52    7.29
   0   5   3    9.22    2.10
   0  -5  -3    8.11    3.69
   0   5   3    6.66    1.03
   0   5   4    1.88    1.21
   0   5   4    1.65    0.60
   0   5   5  241.61   13.79
   0   5   5  271.98   16.00
   0   5   6    1.79    0.77
   0   5   6    1.00    0.61
   0   5   6    1.23    0.66
   0   5   6    0.43    0.58
   0   5   6    0.51    0.73
   0   5   7   96.47    7.16
   0   5   7  101.38    6.94
   0   5   7  104.96    7.34
   0   5   7  105.79    7.23
   0   5   7   97.11    7.21
   0   5   8    2.72    1.21
   0   5   8    3.23    1.15
   0   5   8    3.00    1.14
   0   5   8    2.68    1.02
   0   5   8    4.25    1.35
   0   5   8    3.60    1.34
   0   5   9    1.65    1.28
   0   5   9    0.78    0.98
   0   5   9    1.62    1.23
   0   5   9    1.30    1.01
   0   5   9    1.68    0.98
   0   5  10   17.91    2.85
   0   5  10   10.00    2.12
   0   5  10   10.06    2.26
   0   5  10   10.95    2.40
   0   5  11    6.05    1.76
   0   5  11    7.14    1.75
   0   5  12    9.43    1.65
   0   5  12    6.79    1.62
   0   6  -7   22.33    7.19
   0   6  -6    0.79    1.35
   0  -6   5    4.13    1.94
   0   6  -5    5.20    1.59
   0  -6   5    4.04    1.67
   0  -6   4    3.20    1.58
   0  -6   4    5.74    2.23
   0  -6   4    6.45    1.84
   0  -6   3   85.90    6.93
   0  -6   3   55.85    6.30
   0  -6   3   76.17    7.81
   0  -6   3   67.78    8.15
   0   6  -3   75.42    5.40
   0   6  -2   12.62    1.72
   0  -6   2    8.19    2.83
   0  -6   1  586.28   33.18
   0   6  -1  606.77   30.49
   0  -6   1  525.17   34.21
   0  -6   0  159.14   12.45
   0   6   0  163.33   10.49
   0  -6   0  130.38   11.76
   0   6   0  160.49    9.37
   0   6   1  470.67   24.10
   0  -6  -1  460.94   29.03
   0   6   1  480.03   25.78
   0  -6  -1  401.69   26.84
   0  -6  -2  348.78   24.83
   0   6   2  372.39   21.37
   0   6   2  362.88   19.29
   0  -6  -3  241.26   16.73
   0  -6  -3  243.05   20.04
   0   6   3  271.10   14.58
   0  -6  -4   85.64    7.69
   0   6   4  108.16    6.38
   0  -6  -4  100.59   11.01
   0   6   4   90.38    7.77
   0   6   5   26.93    2.60
   0   6   5   23.55    3.04
   0   6   6   37.17    4.25
   0   6   6   31.10    3.07
   0   6   6   34.44    3.30
   0   6   6   40.89    3.84
   0   6   6   34.59    3.26
   0   6   7   97.10    7.30
   0   6   7  107.68    7.56
   0   6   7  121.96    8.01
   0   6   7  120.19    8.15
   0   6   7  103.07    7.23
   0   6   7  104.77    7.70
   0   6   8  217.33   13.22
   0   6   8  221.17   13.35
   0   6   8  220.47   13.62
   0   6   8  224.16   13.82
   0   6   8  212.33   13.57
   0   6   9   34.45    3.79
   0   6   9   39.38    4.23
   0   6   9   39.08    4.43
   0   6   9   36.68    4.21
   0   6  10  161.84   11.23
   0   6  10  158.85   10.65
   0   6  10  159.69   11.09
   0   6  10  159.20   11.02
   0   6  11   16.94    2.74
   0   6  11   13.69    2.32
   0   6  11   16.29    2.59
   0   6  12    0.96    0.90
   0   7  -6   10.09    3.05
   0   7  -5    9.53    2.21
   0  -7   4    1.08    1.39
   0   7  -4    2.14    1.01
   0   7  -3   11.20    1.87
   0  -7   3   15.38    3.33
   0  -7   3    9.61    3.14
   0  -7   2    3.39    1.97
   0   7  -2    2.87    0.97
   0  -7   1   23.67    4.74
   0   7  -1   17.65    2.29
   0   7  -1   17.27    3.08
   0   7   0   44.05    5.15
   0  -7   0   46.51    5.90
   0  -7   0   39.93    6.01
   0   7   0   49.30    4.14
   0   7   1  105.22    8.53
   0  -7  -1   97.61    9.71
   0  -7  -1   90.06    9.26
   0   7   1  102.04    6.88
   0  -7  -2    9.48    3.36
   0  -7  -2    8.25    2.41
   0   7   2    6.78    2.10
   0  -7  -3  115.77   11.61
   0  -7  -3  114.27    9.80
   0   7   4   10.16    2.57
   0  -7  -4   10.66    2.55
   0  -7  -4   11.28    3.70
   0   7   5   39.93    3.48
   0   7   5   37.89    4.37
   0  -7  -5   42.04    5.04
   0   7   6  362.73   21.36
   0   7   6  321.49   18.92
   0   7   6  367.34   20.06
   0   7   7   15.16    2.65
   0   7   7    9.76    1.87
   0   7   7   12.67    2.21
   0   7   7   13.02    2.10
   0   7   7   11.20    1.81
   0   7   8   85.27    6.64
   0   7   8   97.33    7.07
   0   7   8   98.69    7.39
   0   7   8   90.69    7.16
   0   7   8   92.47    7.26
   0   7   9  140.34    9.90
   0   7   9  132.32    9.51
   0   7   9  135.16    9.16
   0   7   9  135.15    9.73
   0   7  10    8.08    1.84
   0   7  10    4.99    1.40
   0   7  10    4.41    1.55
   0   7  10    4.89    1.57
   0   7  11    6.99    1.69
   0   7  11    5.23    1.49
   0   7  11    4.90    1.52
   0   7  12    4.90    1.27
   0   8  -5    8.70    2.11
   0  -8   4    2.63    1.19
   0   8  -4    3.60    1.32
   0   8  -3    3.86    1.21
   0  -8   3    4.02    2.08
   0  -8   2   -0.49    1.27
   0   8  -2   -0.15    0.58
   0  -8   1   55.38    7.59
   0   8  -1   60.31    6.52
   0   8  -1   53.32    4.68
   0   8   0  287.31   17.17
   0  -8   0  301.52   21.67
   0   8   0  320.02   20.05
   0  -8   0  297.66   19.68
   0   8   1    0.34    1.47
   0  -8  -1    2.31    1.68
   0  -8  -1    2.01    1.79
   0   8   1    1.36    0.85
   0  -8  -1    0.39    1.12
   0   8   2  170.18   12.20
   0  -8  -2  151.39   12.88
   0  -8  -2  146.13   12.42
   0  -8  -2  140.14   12.68
   0  -8  -3    6.82    2.37
   0  -8  -3    9.89    3.34
   0  -8  -4   54.14    6.42
   0   8   4   52.26    6.33
   0  -8  -4   55.60    7.45
   0   8   5   26.09    3.80
   0  -8  -5   20.99    3.82
   0   8   6  163.66   11.00
   0   8   6  147.18   12.14
   0   8   7   11.04    2.52
   0   8   7   11.46    2.27
   0   8   8  478.52   25.68
   0   8   8  507.38   26.05
   0   8   9    2.27    1.10
   0   8   9    0.20    0.70
   0   8   9    0.80    0.85
   0   8  10    1.32    1.03
   0   8  10    2.30    1.08
   0   8  10    0.81    0.86
   0   8  11   11.54    1.95
   0   8  11   11.31    2.04
   0   8  12    0.49    0.57
   0  -9   4   -0.13    0.57
   0  -9   3   40.24    5.41
   0   9  -3   42.70    3.86
   0   9  -2   11.55    1.90
   0  -9   2   16.12    3.68
   0  -9   1   12.62    3.54
   0   9  -1    5.51    1.38
   0   9   0   66.22    5.62
   0  -9   0   68.21    8.52
   0  -9  -1    7.11    2.47
   0  -9  -1   10.50    3.37
   0  -9  -2    9.54    3.04
   0  -9  -2   11.05    3.41
   0  -9  -2    9.95    2.94
   0  -9  -2    4.71    2.30
   0  -9  -3   31.72    5.18
   0  -9  -3   31.02    5.28
   0  -9  -4   29.25    5.21
   0   9   4   25.30    4.51
   0  -9  -4   37.69    5.48
   0  -9  -5    4.67    1.95
   0   9   5    4.84    1.95
   0  -9  -6   76.11    8.03
   0   9   6   69.18    7.55
   0   9   6   65.96    6.23
   0   9   7  901.02   47.75
   0   9   7  881.56   46.82
   0   9   8  127.11    9.01
   0   9   8  111.79    8.47
   0   9   9   20.55    2.87
   0   9   9   20.15    2.84
   0   9  10    1.41    0.91
   0   9  10    1.89    0.97
   0   9  11    0.87    0.72
   0   9  11    0.59    0.54
   0 -10   3   12.71    1.86
   0 -10   2    3.88    1.26
   0 -10   2    5.43    2.02
   0 -10   1    1.59    1.45
   0 -10   0    6.27    2.66
   0 -10  -1   94.28    9.12
   0 -10  -1  106.22   10.60
   0 -10  -2    0.47    1.21
   0 -10  -2    1.19    1.44
   0  10   3   59.50    7.38
   0 -10  -3   83.28    8.56
   0  10   4   38.99    5.27
   0 -10  -4   44.16    6.16
   0 -10  -5  238.79   16.12
   0  10   5  170.74   12.99
   0 -10  -6  112.72   10.35
   0  10   6   96.20    7.96
   0  10   6  105.25    9.28
   0  10   7    3.98    1.38
   0  10   7    6.37    1.88
   0  10   8    6.80    1.74
   0  10   8    5.40    1.47
   0  10   9   -0.33    0.60
   0  10   9    0.49    0.64
   0  10  10    2.90    0.98
   0  10  10    2.02    0.90
   0  10  11    1.89    0.75
   0  10  11    2.00    0.75
   0 -11   1    0.77    0.64
   0 -11   1   -0.26    0.76
   0 -11   0    5.97    2.11
   0 -11  -1   -0.38    0.97
   0 -11  -2    1.33    1.42
   0 -11  -2    5.55    2.16
   0  11   2    0.94    1.46
   0  11   3    0.88    1.36
   0 -11  -3    2.94    1.77
   0 -11  -4    5.79    2.38
   0  11   4    1.80    1.33
   0 -11  -5    1.94    1.67
   0  11   5    5.88    2.19
   0  11   5    6.86    1.88
   0  11   6   16.39    2.57
   0  11   6   21.47    3.29
   0  11   7    9.25    1.93
   0  11   7    9.35    1.79
   0  11   8    7.66    1.59
   0  11   8    6.94    1.48
   0  11   9    0.91    0.67
   0  11   9    1.94    0.78
   0  11  10    1.08    0.56
   0  11  10    0.96    0.57
   0  12   1    0.66    0.63
   0 -12  -1    1.16    0.95
   0 -12  -2   36.16    4.33
   0  12   2   16.40    2.49
   0  12   3    7.66    1.75
   0  12   4    0.17    0.71
   0  12   5   47.96    4.30
   0  12   6    9.47    1.64
   0  12   6    7.94    1.61
   0  12   7   22.44    2.48
   0  12   7   21.05    2.40
   0  12   8   17.01    1.99
   0  12   8   18.69    2.11
  -1  12   8   17.93    1.94
  -1  12   7   11.77    1.71
  -1  12   6   67.82    4.90
  -1  12   6   66.83    5.18
  -1  12   5    5.09    1.17
  -1  12   5    5.64    1.50
  -1  12   4    7.07    1.44
  -1  12   4    7.75    1.89
  -1  12   3   34.37    4.15
  -1  12   3   27.92    3.04
  -1  12   2    1.05    0.74
   1 -12  -2    2.33    1.29
  -1  11   9    1.36    0.67
  -1  11   8    7.11    1.44
  -1  11   7   31.19    3.41
  -1  11   7   25.88    2.87
  -1  11   6    6.46    1.87
  -1  11   6    9.06    1.72
  -1  11   5   10.06    2.79
  -1  11   5    9.63    1.98
  -1  11   4   34.49    4.13
  -1  11   3   35.41    4.39
  -1  11   2    2.48    1.19
  -1  11   2    1.65    1.28
   1 -11  -2    0.39    1.13
   1 -11  -1    0.38    1.19
  -1  11   1    0.27    1.13
  -1  11   1   -0.18    0.70
   1 -11   0   48.00    5.95
   1 -11   1    0.38    0.54
   1 -11   1    0.27    0.77
  -1  10  10   19.58    2.39
   1 -10 -10   37.60    4.93
  -1  10   9    4.21    1.19
  -1  10   8    4.88    1.44
  -1  10   8    2.62    0.98
  -1  10   7   10.18    1.92
  -1  10   7   12.99    2.52
  -1  10   6   31.78    4.64
  -1  10   6   31.38    3.63
  -1  10   5   40.99    6.26
  -1  10   5   34.04    4.08
   1 -10  -4   82.19    8.67
  -1  10   4   63.01    6.46
  -1  10   3  131.20    9.58
   1 -10  -3  152.92   12.15
   1 -10  -2    1.41    1.60
   1 -10  -2    1.97    1.60
   1 -10  -1    3.79    2.20
   1 -10   0    6.73    2.54
   1 -10   1   30.01    4.96
   1 -10   2   22.37    2.87
   1 -10   2   26.08    4.18
   1 -10   3    8.25    1.53
  -1   9  11   13.05    1.83
  -1   9  10    0.15    0.52
   1  -9 -10    0.87    0.99
  -1   9   9   40.96    4.19
  -1   9   9   54.10    4.66
  -1   9   9   49.45    4.35
  -1   9   8  136.62    9.21
  -1   9   8  113.52    8.43
  -1   9   8  125.72    8.79
  -1   9   7  230.24   14.40
  -1   9   7  247.87   15.64
  -1   9   6   27.75    3.53
  -1   9   6   35.94    5.17
   1  -9  -5  181.47   13.27
  -1   9   5  127.92   10.09
  -1   9   4    1.45    1.44
   1  -9  -4    1.28    1.35
   1  -9  -4    0.82    1.29
  -1   9   3   22.26    4.25
   1  -9  -3   26.04    4.89
   1  -9  -3   39.29    5.57
   1  -9  -3   30.59    4.72
   1  -9  -2  112.00   10.61
   1  -9  -2  138.42   11.96
   1  -9  -2  124.43   10.93
   1  -9  -2   97.30    9.57
   1  -9  -1   14.07    3.36
   1  -9  -1   16.33    4.04
   1  -9   0    6.45    2.80
   1  -9   1    2.86    2.03
   1  -9   2   13.45    3.54
   1  -9   3    0.95    0.95
   1  -9   3    1.78    1.38
   1  -9   4    6.10    1.41
  -1   8  11    1.21    0.69
  -1   8  10    2.11    0.97
   1  -8 -10    2.36    1.22
  -1   8  10    1.77    0.88
  -1   8   9    1.58    1.02
  -1   8   9    2.71    1.15
  -1   8   9    3.82    1.28
  -1   8   8   -0.58    0.82
  -1   8   8   -0.21    0.89
  -1   8   8    0.59    0.80
  -1   8   7   92.57    7.56
  -1   8   7   78.03    6.52
  -1   8   6   73.03    6.16
  -1   8   6   71.73    7.62
  -1   8   5  109.90    8.82
   1  -8  -5  145.85   11.15
  -1   8   4  147.39   11.68
   1  -8  -4  194.95   13.65
   1  -8  -3   95.48    9.08
   1  -8  -3   93.82    8.90
   1  -8  -2  104.22    9.63
   1  -8  -2  100.12   10.11
   1  -8  -2  100.18    9.45
   1  -8  -2  118.33   10.53
   1  -8  -1   18.55    4.19
   1  -8  -1   21.44    3.95
   1  -8  -1   23.73    4.13
  -1   8   1   20.65    3.87
   1  -8  -1   18.22    3.87
  -1   8   0   38.68    3.97
   1  -8   0   29.83    4.80
   1  -8   0   39.22    5.08
   1  -8   0   38.77    6.19
  -1   8   0   32.98    5.04
  -1   8  -1   60.65    6.75
   1  -8   1   66.74    8.19
  -1   8  -1   56.49    5.08
  -1   8  -2   25.04    3.01
   1  -8   2   26.22    4.94
  -1   8  -3   20.53    2.73
   1  -8   3   22.38    4.52
  -1   8  -4   14.23    2.48
   1  -8   4   14.87    2.52
  -1   8  -5    1.36    1.24
   1  -8   5    1.41    0.88
  -1   7  11    0.31    0.60
  -1   7  10  131.50    8.98
  -1   7  10  124.10    8.90
  -1   7  10  129.95    9.21
  -1   7  10  132.50    9.14
  -1   7   9   15.58    2.53
  -1   7   9   17.85    2.60
  -1   7   9   12.42    2.40
  -1   7   8  268.00   16.01
  -1   7   8  259.94   15.99
  -1   7   8  265.05   15.93
  -1   7   7   28.00    3.06
  -1   7   7   26.95    3.38
  -1   7   7   28.94    3.39
  -1   7   7   29.41    3.73
  -1   7   6  156.28   11.69
  -1   7   6  152.50   10.20
   1  -7  -5   60.31    6.27
  -1   7   5   51.39    5.04
  -1   7   4  135.69   10.99
   1  -7  -4  133.81   10.27
  -1   7   4  111.14    9.20
  -1   7   3  121.09   10.23
   1  -7  -3  117.63    9.79
   1  -7  -3  118.60   10.07
  -1   7   2   39.81    4.70
   1  -7  -2   44.48    5.67
   1  -7  -2   45.86    5.53
   1  -7  -2   50.89    5.94
   1  -7  -1    5.66    2.13
  -1   7   1    4.59    1.95
   1  -7  -1    6.30    2.04
  -1   7   1    4.20    1.24
   1  -7  -1    3.63    1.96
   1  -7   0   47.97    5.65
  -1   7   0   51.70    5.65
   1  -7   0   43.97    5.76
   1  -7   0   43.37    6.20
  -1   7   0   49.81    4.32
  -1   7  -1  168.46   11.96
   1  -7   1  162.47   11.96
  -1   7  -1  159.25   10.24
   1  -7   1  169.71   13.86
   1  -7   2  184.88   15.62
  -1   7  -2  199.44   13.52
  -1   7  -2  206.40   12.21
   1  -7   3  142.74   12.22
  -1   7  -3  117.86    8.34
  -1   7  -4   32.41    3.76
   1  -7   5   -0.20    0.86
  -1   7  -5    0.31    0.79
  -1   7  -6    3.12    2.66
   1  -7   6    2.33    1.25
  -1   6  12    4.18    1.01
  -1   6  11   20.20    2.71
  -1   6  10    0.42    0.85
  -1   6  10    0.20    0.62
  -1   6  10    0.43    0.83
  -1   6  10    0.21    0.84
  -1   6   9  133.33    9.33
  -1   6   9  123.50    9.32
  -1   6   9  135.31    9.22
  -1   6   9  120.59    9.15
  -1   6   8  198.74   12.44
  -1   6   8  196.06   12.13
  -1   6   8  179.71   12.08
  -1   6   8  180.76   12.05
  -1   6   8  188.65   12.25
  -1   6   7  499.10   29.11
  -1   6   7  592.70   30.28
  -1   6   7  547.00   29.84
  -1   6   7  591.24   29.94
  -1   6   6   29.69    3.20
  -1   6   6   44.62    4.60
  -1   6   6   39.94    3.81
  -1   6   5   13.68    2.22
  -1   6   5   13.40    2.76
  -1   6   5   17.45    3.63
   1  -6  -4    1.69    1.03
  -1   6   4    0.90    1.49
  -1   6   4    1.60    1.09
   1  -6  -3  200.69   13.42
   1  -6  -3  189.70   13.99
  -1   6   3  205.61   14.07
   1  -6  -2   14.33    2.82
   1  -6  -2   16.88    3.28
  -1   6   2   17.80    2.72
   1  -6  -2   14.61    2.77
  -1   6   1   51.44    4.06
   1  -6  -1   53.83    5.86
   1  -6  -1   48.77    5.37
   1  -6  -1   46.69    5.61
  -1   6   1   49.48    4.90
   1  -6   0  113.04   10.12
   1  -6   0  129.02    9.93
  -1   6   0  122.20    7.82
  -1   6   0  131.67    9.04
  -1   6  -1   62.36    4.71
   1  -6   1   49.32    6.48
   1  -6   1   68.72    6.35
   1  -6   1   62.23    6.28
   1  -6   2   28.99    4.87
  -1   6  -2   34.33    3.20
  -1   6  -3  183.99   11.22
   1  -6   3  160.80   14.18
   1  -6   4    2.19    1.63
   1  -6   4    0.90    1.22
  -1   6  -4    0.72    0.70
   1  -6   5   26.27    3.37
  -1   6  -5   16.85    3.13
  -1   6  -6    0.50    1.29
   1  -6   7   32.74    3.95
  -1   5  12    0.24    0.53
  -1   5  11    4.33    1.31
  -1   5  10   82.44    6.73
  -1   5  10   74.72    6.69
  -1   5   9    7.87    1.87
  -1   5   9    5.37    1.68
  -1   5   9    5.85    1.73
  -1   5   9    6.74    1.82
  -1   5   8  609.88   32.62
  -1   5   8  615.07   33.02
  -1   5   8  612.02   32.96
  -1   5   8  610.63   32.73
  -1   5   8  585.49   32.67
  -1   5   7  337.99   18.75
  -1   5   7  323.09   18.31
  -1   5   7  335.59   18.90
  -1   5   7  327.82   18.66
  -1   5   7  327.63   18.70
  -1   5   7  306.30   18.51
  -1   5   6  239.86   13.91
  -1   5   6  198.39   12.87
  -1   5   6  225.61   13.36
  -1   5   6  246.01   13.46
  -1   5   6  223.86   13.54
  -1   5   5    2.04    0.87
  -1   5   5    2.75    1.28
  -1   5   5    2.60    0.83
  -1   5   5    4.25    0.96
  -1   5   4   24.16    3.55
  -1   5   4   20.61    2.03
  -1   5   3    8.27    2.29
   1  -5  -3    6.93    2.17
   1  -5  -2 1817.73   92.22
  -1   5   2 1780.25   90.12
  -1   5   1    0.15    0.74
   1  -5  -1   -0.27    1.03
  -1   5   0   22.59    2.66
   1  -5   0   22.79    3.39
  -1   5  -1    6.72    1.11
   1  -5   1    2.92    1.42
   1  -5   1    4.86    1.55
   1  -5   1    4.79    1.70
   1  -5   2   49.11    5.28
  -1   5  -2   56.36    4.26
   1  -5   2   68.83    5.66
   1  -5   2   51.03    6.24
   1  -5   2   67.79    5.22
   1  -5   3   72.34    5.75
   1  -5   3   66.65    6.64
  -1   5  -3   64.05    4.70
   1  -5   4    3.52    1.31
   1  -5   4    3.09    1.78
  -1   5  -4    5.35    1.29
   1  -5   4    4.49    1.84
  -1   5  -5    6.91    1.84
   1  -5   5   11.10    2.72
  -1   5  -6   69.59    7.63
   1  -5   6   63.10    6.58
   1  -5   7   37.65    4.64
   1  -5   8    1.24    1.13
  -1   4  12    0.47    0.59
  -1   4  11   21.38    2.88
  -1   4  10   64.81    5.88
  -1   4  10   60.79    5.81
  -1   4  10   56.84    5.11
  -1   4   9   29.12    3.38
  -1   4   9   25.70    3.53
  -1   4   9   30.88    3.77
  -1   4   9   24.35    3.43
  -1   4   9   26.30    3.69
  -1   4   8   45.62    4.85
  -1   4   8   43.63    4.63
  -1   4   8   58.14    4.99
  -1   4   8   52.84    4.91
  -1   4   8   60.81    5.43
  -1   4   8   53.95    4.98
  -1   4   7  123.70    8.38
  -1   4   7  128.25    8.71
  -1   4   7  121.58    8.31
  -1   4   7  124.51    8.47
  -1   4   7  123.97    8.56
  -1   4   7  116.87    8.05
  -1   4   6   89.96    6.27
  -1   4   6   87.88    6.28
  -1   4   6   86.17    6.18
  -1   4   6   85.39    6.31
  -1   4   6   82.94    6.15
  -1   4   6   93.11    6.46
  -1   4   6   80.19    6.00
  -1   4   5   57.77    4.22
  -1   4   5   23.98    2.59
  -1   4   4    0.54    0.41
  -1   4   4    0.38    1.02
  -1   4   3  132.17    7.36
  -1   4   3  127.04    9.38
   1  -4  -2   27.18    3.75
  -1   4   2   30.79    2.21
   1  -4  -1   11.29    2.26
  -1   4   1    7.53    1.48
   1  -4   0  444.48   24.83
   1  -4   1    4.45    1.43
   1  -4   1    5.41    1.12
   1  -4   2  104.68    7.44
   1  -4   2  117.47    7.97
   1  -4   2  116.95    7.90
   1  -4   3  663.70   36.24
   1  -4   3  617.15   35.65
   1  -4   3  677.87   34.75
  -1   4  -3  680.35   33.52
   1  -4   3  608.96   34.74
   1  -4   4   25.72    4.12
   1  -4   4   31.16    3.72
  -1   4  -4   23.81    2.69
   1  -4   4   26.04    3.96
   1  -4   4   32.20    3.57
   1  -4   5   93.28    8.59
   1  -4   5   93.90    8.19
   1  -4   5   88.29    7.33
   1  -4   6   20.02    3.22
   1  -4   6   16.04    3.08
   1  -4   6   10.40    2.96
   1  -4   6   18.88    3.78
   1  -4   7    4.35    1.70
   1  -4   7    5.74    2.10
   1  -4   7    6.10    2.28
   1  -4   8    8.11    2.17
   1  -4   9    1.66    1.01
   1  -4   9    4.52    1.49
  -1   3  12    0.67    0.52
  -1   3  11    1.60    0.97
  -1   3  10   53.05    5.12
  -1   3  10   46.70    4.47
  -1   3  10   38.24    4.69
  -1   3   9   19.54    3.33
  -1   3   9   24.32    3.15
  -1   3   8   53.94    5.41
  -1   3   8   65.73    5.55
  -1   3   8   59.03    5.48
  -1   3   8   68.36    5.96
  -1   3   8   59.16    5.49
  -1   3   7   20.96    2.61
  -1   3   7   23.72    2.87
  -1   3   7   29.60    3.30
  -1   3   7   23.94    3.03
  -1   3   7   22.54    2.78
  -1   3   7   23.93    3.04
  -1   3   7   17.76    2.55
  -1   3   6   97.33    6.66
  -1   3   6   94.72    6.50
  -1   3   6   98.84    6.90
  -1   3   6  104.39    6.93
  -1   3   6   89.44    7.30
  -1   3   6   95.38    6.67
  -1   3   6  103.47    6.84
  -1   3   5   36.61    3.19
  -1   3   5   37.50    3.26
  -1   3   4  998.09   53.38
  -1   3   4 1081.04   52.38
  -1   3   3  952.30   49.79
  -1   3   3  973.20   47.96
  -1   3   2  427.76   21.94
   1  -3  -2  466.69   24.33
  -1   3   2  452.24   23.97
  -1   3   1  909.99   45.69
  -1   3   1  919.98   44.58
   1  -3  -1  831.04   46.50
   1  -3   0  531.72   27.13
  -1   3   0  560.39   26.66
   1  -3   1  341.91   19.89
   1  -3   1  387.15   18.45
   1  -3   1  336.61   19.26
   1  -3   2   47.94    3.03
   1  -3   2   46.36    3.92
   1  -3   2   49.91    3.92
   1  -3   2   46.28    3.94
   1  -3   3   35.72    2.57
   1  -3   3   31.66    3.27
   1  -3   4  116.21    8.04
   1  -3   4  130.12    9.01
   1  -3   4  122.67    8.10
   1  -3   4  121.19    6.89
   1  -3   4  102.45    8.92
   1  -3   4  117.46    7.92
  -1   3  -4   99.22    7.09
   1  -3   5  165.43   11.40
   1  -3   5  175.09   10.16
   1  -3   5  177.24   12.54
   1  -3   5  189.65   11.66
   1  -3   5  174.59   11.64
   1  -3   5  175.51   12.98
   1  -3   6   11.34    2.92
   1  -3   6   10.98    2.37
   1  -3   6   13.09    2.59
   1  -3   6   10.43    2.92
   1  -3   6   11.16    1.70
   1  -3   7   43.48    5.03
   1  -3   7   45.23    5.71
   1  -3   7   35.91    4.59
   1  -3   8   95.68    8.78
   1  -3   8   98.44    8.31
   1  -3   8   94.00    8.08
   1  -3   9   -0.22    0.89
   1  -3   9    0.26    0.96
   1  -3   9    1.15    1.19
   1  -3  10    9.25    1.77
  -1   2  11    4.38    1.28
  -1   2  10   75.38    6.88
  -1   2  10   83.70    6.89
  -1   2   9  129.18    9.34
  -1   2   9  114.73    8.53
  -1   2   9  114.14    9.23
  -1   2   8    0.38    0.73
  -1   2   8   -0.43    0.88
  -1   2   8   -0.18    0.56
  -1   2   8    0.47    1.05
  -1   2   7   20.00    2.68
  -1   2   7   19.60    2.64
  -1   2   7   16.00    2.58
  -1   2   7   16.19    2.56
  -1   2   7   19.22    2.62
  -1   2   6   64.40    4.68
  -1   2   6   54.68    4.51
  -1   2   6   50.47    4.58
  -1   2   6   58.42    4.67
  -1   2   6   59.58    5.12
  -1   2   6   59.19    4.85
  -1   2   6   59.36    4.65
  -1   2   5    0.90    0.70
  -1   2   5    0.57    0.45
  -1   2   5    0.94    0.59
  -1   2   4 4577.26  221.31
  -1   2   4 4390.59  219.93
  -1   2   4 4554.52  219.87
  -1   2   3  561.19   28.32
  -1   2   3  514.38   27.35
  -1   2   2    2.61    0.45
   1  -2  -2    4.06    0.86
  -1   2   2    2.13    1.12
   1  -2  -1  362.81   17.82
   1  -2  -1  310.51   16.49
  -1   2   1  356.17   16.61
   1  -2   0 7009.33  340.11
   1  -2   0 7355.16  341.38
   1  -2   0 6942.62  340.37
  -1   2   0 6929.76  340.12
  -1   2  -1 1584.26   79.53
   1  -2   1 1604.29   80.70
   1  -2   1 1648.26   79.50
   1  -2   1 1670.59   80.58
   1  -2   1 1659.29   80.20
   1  -2   2   75.23    5.22
   1  -2   2   83.53    5.27
   1  -2   2   82.11    4.54
   1  -2   2   80.52    5.19
   1  -2   3    3.56    0.63
   1  -2   3    3.29    0.92
   1  -2   4  403.84   20.83
   1  -2   4  405.48   21.90
   1  -2   5  312.24   19.44
   1  -2   5  349.35   19.12
   1  -2   5  336.88   20.55
   1  -2   5  351.36   19.12
   1  -2   5  333.23   17.82
   1  -2   5  337.73   19.20
   1  -2   6    9.98    2.15
   1  -2   6   10.07    1.51
   1  -2   6   11.55    2.72
   1  -2   6    8.62    1.95
   1  -2   7  329.84   20.24
   1  -2   7  299.88   20.06
   1  -2   7  391.23   22.37
   1  -2   7  371.87   21.78
   1  -2   7  335.40   18.60
   1  -2   8   79.73    7.37
   1  -2   8   88.53    8.39
   1  -2   8   85.70    7.55
   1  -2   9   53.82    5.75
   1  -2   9   59.20    5.88
   1  -2   9   53.75    6.17
   1  -2  10   -0.23    0.84
   1  -2  10    0.20    0.92
  -1   1  11    9.27    1.73
  -1   1  10   10.39    2.17
  -1   1  10   14.11    2.43
  -1   1   9   69.62    6.30
  -1   1   9   65.43    5.88
  -1   1   9   67.85    6.62
  -1   1   9   72.24    6.38
  -1   1   8    2.50    1.25
  -1   1   8    2.50    1.17
  -1   1   8    2.19    1.37
  -1   1   8    2.81    1.08
  -1   1   8    0.75    1.03
  -1   1   7  134.68    9.94
  -1   1   7  145.06    9.48
  -1   1   7  154.06   10.07
  -1   1   7  135.58   10.95
  -1   1   7  148.86    9.72
  -1   1   6  160.17    9.55
  -1   1   6  142.44    9.51
  -1   1   6  124.90    9.08
  -1   1   6  142.28    9.48
  -1   1   6  137.72   10.96
  -1   1   6  164.59    9.57
  -1   1   5  661.16   32.89
  -1   1   5  650.62   33.20
  -1   1   5  605.50   32.83
  -1   1   4  180.20   10.95
  -1   1   4  175.02    9.91
  -1   1   4  180.20   10.01
  -1   1   3 2204.05  108.95
  -1   1   3 2290.79  110.96
  -1   1   3 2214.23  109.03
  -1   1   2 2453.06  113.65
  -1   1   2 2293.51  112.04
  -1   1   2 2174.33  112.44
  -1   1   2 2418.35  115.44
   1  -1  -1  663.26   32.60
  -1   1   1  734.70   35.02
  -1   1   1  629.35   32.30
  -1   1   1  719.28   33.39
   1  -1  -1  661.99   32.43
  -1   1   0 1550.44   75.02
   1  -1   0 1482.32   75.52
   1  -1   0 1486.98   75.65
   1  -1   0 1554.49   75.26
  -1   1   0 1569.61   75.40
   1  -1   1 1450.39   71.06
   1  -1   1 1449.82   71.11
   1  -1   1 1425.42   70.62
   1  -1   1 1486.41   70.97
   1  -1   2 1476.46   72.19
   1  -1   2 1413.98   71.81
   1  -1   2 1488.31   71.64
   1  -1   2 1466.50   71.95
   1  -1   2 1468.39   71.89
   1  -1   3    0.82    0.51
   1  -1   3    0.82    0.35
   1  -1   4  897.42   45.38
   1  -1   4  894.87   44.90
   1  -1   5  485.62   25.46
   1  -1   5  486.67   25.01
   1  -1   5  493.96   25.99
   1  -1   6  175.04   10.75
   1  -1   6  165.21    9.54
   1  -1   6  172.36   11.04
   1  -1   6  154.74    9.93
   1  -1   6  148.49   10.84
   1  -1   6  179.58   12.00
   1  -1   7   13.02    2.38
   1  -1   7   13.78    2.55
   1  -1   7   14.16    1.88
   1  -1   7   11.14    1.94
   1  -1   7   14.23    2.82
   1  -1   8   34.57    4.86
   1  -1   8   46.64    4.96
   1  -1   8   48.33    4.04
   1  -1   8   40.46    4.92
   1  -1   9   18.01    3.46
   1  -1   9   14.21    2.72
   1  -1   9   13.09    2.78
   1  -1  10   48.59    5.58
   1  -1  10   47.60    5.04
   1  -1  11    2.04    1.10
   1  -1  11    1.92    0.95
   1  -1  11    2.02    1.17
  -1   0  11   18.63    2.70
  -1   0  11   13.51    2.01
  -1   0  10   15.27    2.54
  -1   0  10   19.56    2.79
  -1   0   9   25.79    3.47
  -1   0   9   25.12    3.62
  -1   0   8   68.37    6.52
  -1   0   8   61.49    4.88
  -1   0   8   73.48    6.32
  -1   0   8   70.21    6.47
  -1   0   8   65.61    5.74
  -1   0   8   62.23    5.56
  -1   0   7  308.17   18.02
  -1   0   7  333.62   18.74
  -1   0   7  305.62   17.97
  -1   0   7  308.45   18.86
  -1   0   6    2.06    0.95
  -1   0   6    2.89    0.96
  -1   0   6    2.40    1.12
   1   0  -6    4.80    2.44
  -1   0   6    3.05    1.12
  -1   0   6    2.48    1.70
  -1   0   5   98.24    6.75
  -1   0   5   99.84    6.70
  -1   0   5   85.67    8.32
  -1   0   4  409.73   22.29
  -1   0   4  425.53   22.97
  -1   0   3   59.38    4.76
  -1   0   3   53.56    5.36
  -1   0   3   60.66    3.87
  -1   0   2  142.97    7.55
  -1   0   2  133.83   11.98
  -1   0   2  136.73    7.58
  -1   0   2  145.14    9.20
   1   0  -1 5173.59  253.37
  -1   0   1 5218.68  253.60
  -1   0   1 5281.29  253.67
  -1   0   0 1588.04   77.46
   1   0   0 1575.33   77.22
  -1   0   0 1587.09   77.09
   1   0   1  183.75    9.14
   1   0   1  178.77    9.24
   1   0   1  182.34    9.08
   1   0   1  187.26    9.34
   1   0   1  183.54    9.04
   1   0   2 8672.80  414.76
   1   0   2 7921.83  414.75
   1   0   2 9053.98  414.53
   1   0   2 8035.54  414.67
   1   0   3   46.91    3.28
   1   0   3   50.01    3.13
   1   0   3   51.57    2.93
   1   0   4    0.16    0.35
   1   0   4    0.52    0.32
   1   0   5 1103.13   55.14
   1   0   6    0.17    0.71
   1   0   6    0.74    0.44
   1   0   6    0.90    0.60
   1   0   6    0.61    0.58
   1   0   6    0.68    0.49
   1   0   6    0.17    0.65
   1   0   7   51.68    4.43
   1   0   7   57.30    4.85
   1   0   7   50.60    5.06
   1   0   7   58.89    5.10
   1   0   7   47.92    5.08
   1   0   7   53.25    4.03
   1   0   8    1.71    1.26
   1   0   8    1.31    1.22
   1   0   8    1.79    1.23
   1   0   8    2.91    0.93
   1   0   9    0.26    1.18
   1   0   9    0.87    1.34
   1   0   9    1.93    1.20
   1   0  10   -0.60    1.28
   1   0  10    0.92    1.11
   1   0  10    0.49    0.94
   1   0  11    3.68    1.43
   1   0  11    6.07    1.87
  -1  -1  10    0.88    0.78
  -1  -1  10    1.77    1.07
  -1  -1   9   17.95    2.95
  -1  -1   9   18.63    2.92
  -1  -1   8  293.80   18.53
  -1  -1   8  325.40   19.24
  -1  -1   7  280.26   17.37
  -1  -1   7  318.46   18.31
  -1  -1   7  257.51   18.19
  -1  -1   7  322.13   17.77
  -1  -1   6   39.66    5.13
  -1  -1   6   30.37    3.99
  -1  -1   6   40.79    3.87
  -1  -1   6   45.17    4.32
   1   1  -6   45.28    6.63
  -1  -1   6   41.54    3.91
  -1  -1   5  152.30   11.36
  -1  -1   5  214.26   11.84
  -1  -1   5  192.34   12.07
   1   1  -5  157.62   12.28
  -1  -1   5  197.07   11.28
  -1  -1   5  205.22   11.31
  -1  -1   5  183.27   13.48
  -1  -1   4   90.64    7.37
  -1  -1   4   97.85    6.21
  -1  -1   3  109.94    7.26
  -1  -1   3  131.98    9.58
  -1  -1   2  148.40    9.07
   1   1  -2  147.68    7.83
  -1  -1   2  155.26   13.15
  -1  -1   1  396.91   20.48
   1   1  -1  373.90   18.97
  -1  -1   0  696.88   35.17
   1   1   0  746.23   35.32
  -1  -1   0  784.68   36.21
  -1  -1   0  646.48   36.43
   1   1   1 3404.85  168.70
   1   1   1 3514.91  168.48
   1   1   1 3432.13  168.48
   1   1   1 3473.77  168.66
   1   1   2 3612.84  171.03
   1   1   2 3368.74  171.05
   1   1   2 3566.49  171.17
   1   1   2 3403.10  170.91
   1   1   2 3570.13  170.93
   1   1   2 3586.51  171.04
   1   1   3 2645.71  131.03
   1   1   3 2690.90  130.96
   1   1   3 2710.23  130.75
   1   1   3 2706.14  130.86
   1   1   3 2663.25  130.70
   1   1   3 2656.24  131.00
   1   1   4  181.13    9.87
   1   1   5   60.74    4.24
   1   1   6    0.83    0.56
   1   1   6    1.31    0.75
   1   1   6    1.29    0.64
   1   1   6    0.35    0.33
   1   1   6    0.30    0.39
   1   1   7   41.04    4.18
   1   1   7   41.20    4.16
   1   1   7   39.95    3.98
   1   1   7   36.48    3.67
   1   1   7   39.20    3.12
   1   1   7   38.35    3.87
   1   1   8   24.54    3.21
   1   1   8   25.15    3.28
   1   1   8   18.63    3.11
   1   1   8   21.89    2.91
   1   1   8   23.20    2.44
   1   1   8   24.17    3.40
   1   1   9    1.75    1.25
   1   1   9    0.70    1.08
   1   1   9   -0.27    1.12
   1   1  10   16.83    2.96
   1   1  10   16.01    3.08
   1   1  10   21.86    3.20
   1   1  11   25.10    3.70
   1   1  11   21.89    3.05
   1   1  12   -0.13    0.62
   1   1  12    1.03    0.83
   1   1  12   -0.19    0.80
  -1  -2  10    1.00    0.78
  -1  -2   9    4.03    1.51
  -1  -2   9    4.32    1.44
  -1  -2   8   41.16    4.63
  -1  -2   8   41.19    4.76
   1   2  -7   13.37    4.42
  -1  -2   7   12.66    2.67
  -1  -2   7   10.34    2.28
  -1  -2   7   13.07    1.91
  -1  -2   6   12.28    2.07
  -1  -2   6   12.12    2.28
  -1  -2   6    9.07    2.05
  -1  -2   6    9.60    2.97
   1   2  -6   11.68    3.13
  -1  -2   5    3.75    1.03
  -1  -2   5    2.80    1.14
  -1  -2   5    3.31    1.69
   1   2  -5    3.78    1.35
  -1  -2   5    3.35    1.44
   1   2  -4    1.63    0.71
  -1  -2   4    3.51    1.64
  -1  -2   4    4.11    1.62
  -1  -2   4    1.67    0.83
  -1  -2   4    2.88    0.83
  -1  -2   4    4.62    1.48
  -1  -2   3  154.42    8.95
  -1  -2   3  152.18   11.48
  -1  -2   2  653.41   40.65
  -1  -2   2  720.40   36.00
  -1  -2   2  711.37   35.67
   1   2  -1  444.81   22.56
  -1  -2   1  459.55   22.91
  -1  -2   1  461.82   23.37
   1   2   0 3902.39  187.74
  -1  -2   0 3580.70  195.16
  -1  -2   0 3731.91  188.32
   1   2   0 3890.00  188.02
   1   2   1 1880.69   90.54
  -1  -2  -1 1913.31   90.66
  -1  -2  -1 1670.96   93.78
   1   2   1 1845.78   90.47
   1   2   1 1784.95   90.77
   1   2   2  306.25   15.74
   1   2   2  323.43   15.53
  -1  -2  -2  283.62   17.64
   1   2   2  294.24   15.34
   1   2   3 1292.58   63.20
   1   2   3 1346.63   63.12
   1   2   3 1272.19   63.20
   1   2   3 1259.88   62.79
   1   2   3 1278.69   63.19
   1   2   4    6.56    0.91
   1   2   4    6.42    0.70
   1   2   4    7.89    0.99
   1   2   4    6.61    0.83
   1   2   5  321.96   16.47
   1   2   5  312.56   16.68
   1   2   5  320.95   16.73
   1   2   5  308.00   16.08
   1   2   6    0.98    0.47
   1   2   6    0.06    0.29
   1   2   7   22.54    2.82
   1   2   7   19.41    2.45
   1   2   7   22.89    2.78
   1   2   7   22.42    2.68
   1   2   7   21.20    2.75
   1   2   8   31.61    3.38
   1   2   8   28.50    3.63
   1   2   8   27.08    3.41
   1   2   8   23.32    3.15
   1   2   9    2.31    1.55
   1   2   9   -0.23    1.05
   1   2  10  199.80   13.84
   1   2  10  201.61   13.21
   1   2  11   27.80    3.48
   1   2  11   27.04    3.83
   1   2  12    2.49    0.97
   1   2  12    2.42    1.22
   1   2  12    1.92    1.26
  -1  -3   9    0.17    0.63
  -1  -3   9    0.69    0.77
  -1  -3   8    1.84    1.18
  -1  -3   8    2.76    1.36
   1   3  -8    2.51    3.23
   1   3  -7    4.98    2.54
  -1  -3   7    9.45    2.24
  -1  -3   7    3.76    1.53
  -1  -3   7    6.52    2.25
  -1  -3   6    8.16    1.54
  -1  -3   6    9.28    2.13
  -1  -3   6    7.56    2.05
   1   3  -6    6.84    2.32
  -1  -3   6    9.26    2.86
  -1  -3   6    7.13    2.00
  -1  -3   5   73.01    6.57
  -1  -3   5   83.17    6.44
   1   3  -5   56.40    5.73
  -1  -3   5   76.62    8.36
  -1  -3   4  219.59   13.10
   1   3  -4  214.86   13.00
  -1  -3   4  232.04   15.12
  -1  -3   4  242.69   13.81
  -1  -3   4  227.29   14.94
  -1  -3   3   70.49    5.01
  -1  -3   3   71.49    7.05
  -1  -3   2 4875.63  252.54
  -1  -3   2 5109.42  247.63
  -1  -3   1   -0.53    2.46
  -1  -3   1   -0.41    1.74
   1   3   0 6081.92  296.10
   1   3   0 6078.22  296.49
   1   3   1  158.65    8.45
   1   3   2   83.37    4.89
   1   3   2   96.23    5.92
   1   3   3  233.21   12.31
   1   3   3  244.97   12.39
  -1  -3  -3  252.19   17.97
   1   3   3  221.72   12.93
   1   3   4   67.49    4.04
   1   3   4   52.98    3.73
   1   3   5 1009.82   50.54
   1   3   6 1767.60   84.30
   1   3   6 1629.84   84.14
   1   3   7   10.52    1.81
   1   3   7   12.37    1.77
   1   3   7   11.99    1.83
   1   3   7   12.64    2.06
   1   3   7   11.35    1.78
   1   3   8   68.34    5.69
   1   3   8   74.33    6.02
   1   3   8   69.36    5.54
   1   3   8   66.46    5.58
   1   3   8   70.60    5.98
   1   3   8   74.82    6.14
   1   3   8   64.14    5.23
   1   3   9    9.58    2.35
   1   3   9    9.74    2.07
   1   3   9    9.98    2.31
   1   3   9    9.22    1.90
   1   3  10  105.51    8.80
   1   3  10  113.57    8.53
   1   3  10  110.36    8.63
   1   3  11    1.01    0.91
   1   3  11    2.30    1.36
   1   3  12    3.98    1.49
   1   3  12    5.61    1.95
   1   3  12    4.97    1.35
  -1  -4   8   17.80    2.65
   1   4  -8   24.12    5.93
  -1  -4   8   16.50    2.60
   1   4  -7   -0.52    1.34
  -1  -4   7   -0.23    1.12
  -1  -4   7    0.99    1.06
  -1  -4   7    0.34    1.16
  -1  -4   6    3.59    2.18
   1   4  -6    2.77    1.55
  -1  -4   6    3.13    1.51
  -1  -4   6    4.20    1.60
   1   4  -5   10.17    2.13
  -1  -4   5   19.71    3.18
  -1  -4   5   18.26    2.98
  -1  -4   5   12.41    3.55
  -1  -4   5   16.80    2.99
  -1  -4   4  123.39    9.39
   1   4  -4  112.20    7.54
  -1  -4   4  110.89   10.82
   1   4  -4  101.06    7.43
  -1  -4   4  119.13    8.54
   1   4  -3   26.99    2.53
   1   4  -3   24.03    2.67
  -1  -4   3   31.43    4.27
   1   4  -2   80.37    5.48
  -1  -4   2   75.37    7.75
  -1  -4   1 1560.52   82.64
   1   4  -1 1598.13   77.32
  -1  -4   1 1413.38   81.27
  -1  -4   0   71.80   10.51
   1   4   0   81.14    5.04
  -1  -4   0   81.52    9.99
   1   4   1 3217.79  153.70
   1   4   1 3032.11  153.72
   1   4   2   46.32    3.09
   1   4   2   47.29    4.03
   1   4   2   44.93    3.07
   1   4   3    2.83    0.69
   1   4   3    3.31    0.66
   1   4   4 1121.01   55.74
   1   4   5 1911.93   94.44
   1   4   6  236.38   13.43
   1   4   6  231.43   13.28
   1   4   6  229.18   12.99
   1   4   6  240.05   13.28
   1   4   6  242.90   13.46
   1   4   6  230.24   13.19
   1   4   7  345.06   18.98
   1   4   7  347.00   18.65
   1   4   7  357.65   19.20
   1   4   7  317.15   18.83
   1   4   8  184.18   11.38
   1   4   8  168.17   10.84
   1   4   8  158.05   10.55
   1   4   8  169.70   11.04
   1   4   8  162.08   10.47
   1   4   8  160.21   10.31
   1   4   9  128.59    9.77
   1   4   9  131.12    9.31
   1   4   9  143.21    9.91
   1   4   9  135.62    9.81
   1   4  10   -0.22    0.68
   1   4  10   -0.24    1.07
   1   4  10   -0.53    1.01
   1   4  11    4.38    1.44
   1   4  11    2.51    1.49
   1   4  12    4.67    1.54
  -1  -5   8    3.21    1.17
   1   5  -7   35.52    5.89
  -1  -5   6    9.29    2.28
   1   5  -6    8.61    2.40
  -1  -5   6   13.99    3.38
  -1  -5   5   36.02    5.52
   1   5  -5   32.25    3.87
  -1  -5   5   35.70    4.60
   1   5  -4   46.13    4.17
  -1  -5   4   52.12    6.83
  -1  -5   4   44.88    5.11
  -1  -5   4   46.50    5.26
  -1  -5   3   33.03    5.59
   1   5  -3   39.69    3.39
  -1  -5   3   32.46    5.34
  -1  -5   3   44.15    5.12
   1   5  -2  192.93   11.16
   1   5  -2  180.24   10.60
  -1  -5   2  201.21   13.80
  -1  -5   2  181.48   14.23
  -1  -5   1 1421.78   80.15
   1   5  -1 1571.35   76.78
  -1  -5   1 1572.41   80.76
   1   5  -1 1542.78   76.41
  -1  -5   0   26.94    5.62
   1   5   0   26.56    2.55
   1   5   1    4.66    0.85
   1   5   1    2.54    1.10
  -1  -5  -1    2.77    4.29
   1   5   2  553.80   29.22
   1   5   2  531.74   27.46
   1   5   3  394.38   20.71
   1   5   3  402.68   20.77
   1   5   4   -0.08    0.37
   1   5   5   61.50    4.38
   1   5   6   11.96    1.69
   1   5   6   12.13    1.72
   1   5   6   12.79    1.93
   1   5   6   12.32    1.66
   1   5   6   13.34    2.10
   1   5   7  141.89    8.88
   1   5   7  128.55    8.26
   1   5   7  135.18    8.61
   1   5   7  123.33    8.50
   1   5   7  124.59    8.56
   1   5   7  129.57    8.53
   1   5   8   19.45    2.51
   1   5   8   18.56    2.58
   1   5   8   16.84    2.48
   1   5   8   21.22    2.89
   1   5   9   21.50    2.83
   1   5   9   20.85    3.05
   1   5   9   25.95    3.51
   1   5   9   19.01    2.83
   1   5   9   25.55    3.46
   1   5  10    2.63    1.45
   1   5  10    1.89    1.18
   1   5  10    3.03    1.49
   1   5  11   11.95    2.36
   1   5  11   13.42    2.62
   1   5  12   15.36    2.60
   1   6  -7    9.06    2.91
   1   6  -6    4.99    1.87
   1   6  -5    1.70    0.95
  -1  -6   5    1.50    1.28
   1   6  -4   37.18    3.76
  -1  -6   4   45.18    6.04
  -1  -6   3  161.35   11.41
  -1  -6   3  146.38   12.70
   1   6  -3  149.44    9.27
  -1  -6   3  132.37   12.88
  -1  -6   2   23.80    4.70
  -1  -6   2   33.79    4.41
   1   6  -2   28.12    2.75
  -1  -6   2   29.37    5.05
  -1  -6   1  119.38    9.48
   1   6  -1  115.60    7.13
   1   6   0   58.63    4.21
  -1  -6   0   48.87    6.26
  -1  -6   0   49.15    7.11
   1   6   0   50.34    4.00
   1   6   1   13.53    2.27
   1   6   1   13.65    1.65
  -1  -6  -1    9.67    2.62
   1   6   1   11.12    1.51
  -1  -6  -1   10.80    4.55
   1   6   2   49.93    5.17
  -1  -6  -2   56.40   10.65
  -1  -6  -3   -1.20    5.36
   1   6   3    0.10    0.37
   1   6   3    0.68    1.05
   1   6   4  255.55   17.32
   1   6   4  295.83   18.80
   1   6   5    1.51    0.90
   1   6   5    2.03    0.67
   1   6   5    0.95    0.92
   1   6   5    3.46    0.82
   1   6   5    2.05    0.77
   1   6   6    9.60    2.01
   1   6   6    9.89    1.94
   1   6   6    7.76    1.34
   1   6   6    8.25    1.50
   1   6   6   10.05    1.55
   1   6   7  139.88    9.41
   1   6   7  140.75    8.88
   1   6   7  140.85    9.37
   1   6   7  140.39    9.05
   1   6   7  137.84    9.10
   1   6   8   38.91    4.00
   1   6   8   37.02    3.66
   1   6   8   33.10    3.68
   1   6   8   28.95    3.45
   1   6   9  268.85   16.03
   1   6   9  251.92   14.96
   1   6   9  229.83   15.00
   1   6   9  258.58   15.65
   1   6   9  241.85   15.21
   1   6  10    1.65    1.29
   1   6  10    2.46    1.19
   1   6  10    3.14    1.36
   1   6  11   19.51    2.97
   1   6  11   17.20    2.88
   1   6  12    1.14    1.01
   1   7  -6   20.19    3.26
   1   7  -5    2.84    1.17
   1   7  -4   12.75    2.12
  -1  -7   4   20.17    3.83
  -1  -7   3   91.01    8.67
   1   7  -3   71.64    5.57
  -1  -7   3   70.53    8.63
   1   7  -2   65.26    4.97
  -1  -7   2   61.04    8.09
   1   7  -1    1.56    0.77
   1   7  -1    1.26    1.21
  -1  -7   1    0.50    1.28
   1   7   0   61.24    5.88
  -1  -7   0   58.65    7.12
  -1  -7   0   41.50    6.54
   1   7   0   59.00    4.59
   1   7   1   58.58    4.62
  -1  -7  -1   57.32    8.30
  -1  -7  -1   68.78    7.69
   1   7   1   58.98    5.98
  -1  -7  -2   33.79    5.09
  -1  -7  -2   34.67    7.30
   1   7   2   42.37    5.16
   1   7   3  455.67   24.11
  -1  -7  -3  442.80   34.00
   1   7   4    0.11    0.39
  -1  -7  -4    1.97    4.01
   1   7   5  438.39   21.50
   1   7   5  387.79   23.31
   1   7   5  383.31   21.40
  -1  -7  -5  366.27   23.88
   1   7   6   86.27    6.12
   1   7   6   85.98    6.28
   1   7   6   89.11    7.67
   1   7   6   98.79    6.43
   1   7   6   92.98    7.20
   1   7   7   73.58    5.56
   1   7   7   65.79    5.57
   1   7   7   77.45    6.35
   1   7   7   74.11    5.69
   1   7   7   80.34    6.26
   1   7   8   23.81    3.01
   1   7   8   19.58    2.78
   1   7   8   19.87    2.87
   1   7   8   24.04    3.16
   1   7   8   23.56    2.83
   1   7   8   18.74    2.77
   1   7   9   98.25    7.33
   1   7   9  101.52    7.87
   1   7   9   98.94    7.56
   1   7  10   32.80    3.92
   1   7  10   35.37    4.17
   1   7  10   38.34    4.33
   1   7  11    2.61    1.19
   1   7  11    3.24    1.45
   1   7  11    4.02    1.42
   1   7  12    0.35    0.67
   1   8  -5   10.27    1.92
   1   8  -4   10.38    1.83
  -1  -8   3   16.95    3.89
   1   8  -3   16.71    2.25
  -1  -8   2    1.02    1.46
   1   8  -2    0.28    0.44
  -1  -8   1   11.60    3.54
   1   8  -1   17.46    2.31
   1   8   0   65.26    6.84
   1   8   0   61.10    5.08
  -1  -8   0   54.38    7.76
   1   8   1    3.01    1.83
   1   8   1   -0.32    0.54
  -1  -8  -1    0.49    1.25
  -1  -8  -1   -0.47    1.83
   1   8   2  541.91   30.83
  -1  -8  -2  536.88   34.17
  -1  -8  -2  470.19   31.33
  -1  -8  -3   36.32    7.48
  -1  -8  -4   46.21    8.71
   1   8   4   44.34    3.85
  -1  -8  -4   46.87    6.17
   1   8   5   46.20    3.94
  -1  -8  -5   42.11    5.68
   1   8   5   46.56    5.53
   1   8   6    1.46    0.78
   1   8   6    0.96    1.11
   1   8   6    2.70    1.64
   1   8   6    1.50    0.71
   1   8   7  107.99    8.53
   1   8   7  109.65    7.63
   1   8   7  109.03    7.51
   1   8   7  103.37    7.65
   1   8   8  163.32   10.86
   1   8   8  192.18   11.94
   1   8   8  168.59   11.12
   1   8   8  195.93   11.89
   1   8   8  175.86   11.63
   1   8   8  170.75   11.25
   1   8   9   25.61    3.30
   1   8   9   29.77    3.29
   1   8   9   31.54    3.77
   1   8  10   58.04    5.47
   1   8  10   51.73    5.20
   1   8  10   63.64    5.41
   1   8  11    0.36    0.66
   1   8  11    0.18    0.60
   1   8  11   -0.20    0.76
   1   8  12   19.21    2.60
   1   8  12   20.91    2.48
   1   9  -4    1.47    0.65
  -1  -9   3   16.59    3.32
   1   9  -3   16.27    2.13
   1   9  -2    0.54    0.60
  -1  -9   2    0.86    1.36
   1   9  -1    0.75    0.64
  -1  -9   1    0.49    1.41
   1   9   0   62.14    5.30
  -1  -9   0   70.64    8.64
  -1  -9  -1    6.01    2.61
  -1  -9  -1    7.15    2.73
   1   9   1    6.68    1.64
  -1  -9  -2   16.86    4.12
  -1  -9  -2   19.39    4.40
  -1  -9  -2   18.27    4.41
   1   9   2   21.56    3.98
  -1  -9  -3    0.45    1.30
  -1  -9  -3    1.12    2.28
   1   9   4    9.63    3.26
  -1  -9  -4    9.01    2.91
  -1  -9  -4   13.93    4.43
  -1  -9  -5   80.59    8.42
   1   9   5   68.06    7.21
   1   9   6   45.20    4.98
   1   9   6   34.02    4.87
  -1  -9  -6   32.24    5.26
   1   9   7   93.22    7.72
   1   9   7   91.18    7.57
   1   9   8    3.84    1.38
   1   9   8    3.85    1.39
   1   9   8    4.21    1.22
   1   9   8    4.19    1.29
   1   9   9  120.96    8.69
   1   9   9  129.51    9.07
   1   9   9  121.72    8.34
   1   9  10    1.61    1.01
   1   9  10    1.58    0.88
   1   9  10    2.53    1.18
   1   9  11    3.09    1.07
   1   9  11    1.43    0.77
   1   9  11    1.55    0.91
   1   9  12   11.99    1.84
   1   9  12   10.71    1.56
  -1 -10   2    0.30    0.94
  -1 -10   1    7.76    2.62
  -1 -10   0  122.80   11.38
  -1 -10  -1    5.53    2.29
  -1 -10  -1    4.25    2.20
  -1 -10  -2    2.34    1.81
  -1 -10  -2    2.47    1.68
  -1 -10  -3    8.22    2.76
   1  10   4   50.43    6.48
  -1 -10  -4   70.21    7.89
  -1 -10  -5    0.42    1.32
   1  10   5   -0.90    1.39
   1  10   6  113.68    8.74
   1  10   6   94.53    8.71
  -1 -10  -6  106.28   10.24
   1  10   7   33.42    4.08
   1  10   7   35.16    4.12
   1  10   8    5.81    1.59
   1  10   8    7.44    1.80
   1  10   9    1.30    0.90
   1  10   9    1.32    0.80
   1  10  10    3.35    1.17
   1  10  10    1.94    0.85
   1  10  11    8.90    1.55
   1  10  11    8.41    1.60
  -1 -11   1    4.65    1.54
  -1 -11   1    1.19    0.67
  -1 -11   0    0.32    0.82
  -1 -11  -1    0.36    0.94
  -1 -11  -2   29.95    4.47
  -1 -11  -2   34.88    5.13
  -1 -11  -3   36.26    5.09
   1  11   3   17.15    3.56
  -1 -11  -4   21.01    4.07
   1  11   4   17.71    3.25
  -1 -11  -5    1.54    1.40
   1  11   5   -1.21    0.98
  -1 -11  -6  139.60   11.42
   1  11   6  112.04    8.69
   1  11   7   11.08    2.08
   1  11   8    7.39    1.54
   1  11   8    5.89    1.50
   1  11   9    7.89    1.46
   1  11   9    5.57    1.41
   1  11  10    0.91    0.69
   1  11  10    1.37    0.66
   1  12   2    2.16    1.12
  -1 -12  -3    0.53    1.02
   1  12   3    0.18    0.76
   1  12   4    5.42    1.50
  -1 -12  -4   12.33    2.66
   1  12   5   65.61    5.53
  -1 -12  -5   85.37    7.65
   1  12   6    8.25    1.65
   1  12   7   96.72    6.69
   1  12   8    9.85    1.63
   1  12   9   13.33    1.75
  -2  12   6    0.92    0.63
  -2  12   5    2.92    1.12
  -2  12   4    7.51    1.74
  -2  12   3    1.01    1.10
  -2  12   2    0.22    0.52
  -2  11   8    5.69    1.16
  -2  11   7    4.38    1.16
  -2  11   7    6.12    1.37
  -2  11   6    0.76    1.01
  -2  11   5   13.72    2.78
  -2  11   4    1.74    1.74
  -2  11   4   -0.78    0.98
  -2  11   3   -0.21    0.80
  -2  11   2   22.47    3.18
   2 -11  -2   38.27    5.31
   2 -11  -1    3.99    1.98
  -2  11   1    3.45    1.23
  -2  11   0    3.83    1.13
   2 -11   0    9.28    2.55
  -2  11  -1    6.39    1.28
   2 -11   1    7.46    2.07
  -2  10   9    2.77    0.87
  -2  10   9    1.95    0.75
  -2  10   8    1.04    0.74
  -2  10   8    0.29    0.59
  -2  10   7    5.89    1.59
  -2  10   6    5.46    1.88
  -2  10   5   91.27    8.97
  -2  10   4    2.77    1.37
  -2  10   3   22.24    3.37
  -2  10   2    7.43    2.05
  -2  10   2    3.91    1.94
   2 -10  -2    9.76    3.06
   2 -10  -1    0.94    1.47
   2 -10   0    3.53    1.97
   2 -10   1   14.40    2.38
   2 -10   1   16.41    3.63
   2 -10   2   14.40    2.31
   2 -10   2   19.20    3.53
   2 -10   3   12.86    1.94
  -2   9  10    4.37    1.06
   2  -9 -10    5.08    1.58
  -2   9  10    3.28    0.97
  -2   9   9    3.96    1.15
  -2   9   9    4.61    1.26
  -2   9   8   91.37    6.91
  -2   9   8   89.67    6.83
  -2   9   7    0.66    0.98
  -2   9   6    0.30    1.17
  -2   9   5    0.89    1.81
  -2   9   5    1.62    1.19
  -2   9   4   54.54    5.46
   2  -9  -3   36.97    5.50
  -2   9   3   22.17    3.50
   2  -9  -2   30.21    4.95
   2  -9  -2   26.19    5.01
   2  -9  -1   21.99    4.15
   2  -9  -1   24.36    4.95
   2  -9   0   52.66    7.56
   2  -9   1   27.40    5.15
   2  -9   2    1.28    1.64
   2  -9   2    0.43    0.92
   2  -9   3   -0.19    0.61
   2  -9   3    0.35    0.91
   2  -9   4    9.28    1.78
  -2   8  11    3.45    0.96
  -2   8  10    1.46    0.75
   2  -8 -10    0.23    0.77
  -2   8  10    1.18    0.76
  -2   8   9    3.22    1.07
  -2   8   9    1.69    0.90
  -2   8   8   65.90    5.77
  -2   8   8   75.88    6.13
  -2   8   7   70.09    6.29
  -2   8   6   22.05    3.78
  -2   8   5   33.08    4.08
  -2   8   4    6.44    1.87
  -2   8   4    4.69    2.15
  -2   8   3  168.03   11.56
  -2   8   3  137.48   12.62
   2  -8  -3  165.30   12.94
   2  -8  -2  213.11   14.81
   2  -8  -2  217.21   15.59
   2  -8  -2  171.83   13.68
  -2   8   2  164.59   13.81
   2  -8  -2  177.43   13.21
   2  -8  -1   42.03    5.68
   2  -8  -1   42.78    5.57
   2  -8  -1   46.50    6.59
   2  -8  -1   40.08    5.20
   2  -8   0  135.00   11.26
   2  -8   0  141.17   11.13
   2  -8   1   62.11    7.99
   2  -8   2    9.42    3.18
  -2   8  -3   45.64    4.65
   2  -8   3   56.85    7.23
   2  -8   3   53.38    5.30
   2  -8   4    7.96    1.94
   2  -8   5    5.68    1.48
  -2   7  11   19.72    2.40
  -2   7  10    0.66    0.71
  -2   7  10    0.34    0.57
   2  -7 -10   -0.23    0.67
  -2   7   9    0.18    0.67
   2  -7  -9    0.75    0.79
  -2   7   9   -0.18    0.58
  -2   7   8    4.13    1.46
  -2   7   8    3.26    1.19
  -2   7   7  324.60   17.91
  -2   7   7  271.04   17.19
  -2   7   6  419.72   24.36
  -2   7   6  402.03   24.09
  -2   7   5  369.50   23.32
  -2   7   5  392.64   24.53
  -2   7   5  369.20   21.75
  -2   7   4  197.02   12.64
  -2   7   4  180.83   14.14
  -2   7   3   43.77    4.71
   2  -7  -3   54.32    6.09
  -2   7   3   45.32    5.90
   2  -7  -3   47.81    5.73
   2  -7  -2   50.93    5.69
   2  -7  -2   58.67    6.36
   2  -7  -2   53.65    6.25
  -2   7   2   52.83    6.22
   2  -7  -2   62.12    6.84
   2  -7  -1  675.15   36.28
   2  -7  -1  691.37   37.62
   2  -7  -1  626.39   35.40
   2  -7  -1  635.85   36.12
  -2   7   1  576.27   34.77
  -2   7   0   24.06    3.89
   2  -7   0   22.95    3.71
   2  -7   0   27.82    4.16
   2  -7   0   24.41    4.58
  -2   7  -1  103.37    7.50
  -2   7  -1  113.46    9.25
   2  -7   1  104.24    8.73
   2  -7   1  104.06    8.81
   2  -7   1   98.81   10.00
   2  -7   2  313.70   22.29
  -2   7  -2  328.06   18.60
   2  -7   3   69.68    8.19
  -2   7  -3   69.19    5.86
  -2   7  -4    5.40    1.72
   2  -7   4    7.10    1.99
  -2   7  -5    0.80    1.15
   2  -7   5    0.21    0.78
   2  -7   5    0.26    1.10
   2  -7   6   12.35    2.36
   2  -7   6    6.65    1.55
   2  -7   7    4.65    1.28
  -2   6  11    0.58    0.68
  -2   6  10   36.14    3.88
  -2   6   9  166.20   10.58
   2  -6  -9  133.02   10.88
  -2   6   9  159.48   10.50
  -2   6   8   45.20    4.53
  -2   6   8   46.65    4.58
  -2   6   7  115.42    8.14
  -2   6   7  109.40    8.02
  -2   6   7  100.76    7.82
  -2   6   7  116.14    8.36
  -2   6   6   10.96    2.24
  -2   6   6    8.36    1.73
  -2   6   6    7.22    1.97
  -2   6   5  182.62   12.87
  -2   6   5  162.13   12.17
  -2   6   5  168.05   11.23
  -2   6   4    0.39    0.83
  -2   6   4    0.32    1.25
  -2   6   3   18.85    2.71
   2  -6  -3   18.87    3.19
   2  -6  -3   12.78    2.76
  -2   6   3   18.37    3.55
   2  -6  -2  451.14   25.13
   2  -6  -2  373.41   24.38
   2  -6  -2  426.52   24.51
  -2   6   2  422.86   24.83
   2  -6  -2  398.88   23.77
   2  -6  -1  117.03    9.82
  -2   6   1  111.67    8.62
   2  -6  -1  115.48    9.24
   2  -6  -1  119.96    9.55
   2  -6  -1  121.88    9.11
   2  -6   0   55.82    6.47
  -2   6   0   60.64    5.55
   2  -6   0   51.09    5.71
   2  -6   0   58.68    5.72
  -2   6   0   56.48    4.51
  -2   6  -1   87.07    7.06
   2  -6   1   72.04    8.08
   2  -6   1   84.78    7.37
  -2   6  -1   81.77    5.93
   2  -6   1   87.50    7.26
  -2   6  -2  173.19   10.49
   2  -6   2  173.36   11.71
   2  -6   2  153.52   13.13
  -2   6  -2  167.91   11.42
  -2   6  -3    3.12    1.11
   2  -6   3    2.48    1.77
  -2   6  -4   11.42    2.27
   2  -6   5   75.06    6.39
  -2   6  -5   56.39    6.62
   2  -6   6    0.21    0.75
   2  -6   7   12.07    2.45
   2  -6   8   14.90    2.25
  -2   5  11    5.02    1.32
  -2   5  10   30.48    3.66
  -2   5   9    9.67    2.05
   2  -5  -9    5.03    1.84
   2  -5  -8   23.12    3.75
  -2   5   8   30.13    3.65
  -2   5   8   29.32    3.56
  -2   5   8   32.50    3.62
  -2   5   8   35.20    3.79
  -2   5   7   66.33    5.78
  -2   5   7   75.01    6.12
  -2   5   7   73.94    5.88
  -2   5   7   75.81    5.97
  -2   5   6  673.50   37.60
  -2   5   6  780.91   37.89
  -2   5   6  676.85   37.20
  -2   5   6  729.63   37.49
  -2   5   5  189.64   11.66
  -2   5   5  182.78   12.30
  -2   5   5  174.57   12.23
  -2   5   4  539.29   31.28
  -2   5   4  564.44   29.92
   2  -5  -3  699.16   38.13
  -2   5   3  710.71   38.99
  -2   5   2   34.33    4.36
   2  -5  -2   32.89    4.14
   2  -5  -2   29.76    3.60
   2  -5  -1   27.08    3.34
  -2   5   1   28.09    3.32
   2  -5  -1   28.20    3.71
   2  -5   0   56.60    5.49
   2  -5   0   55.02    5.13
  -2   5   0   56.65    4.80
  -2   5  -1  422.37   23.31
   2  -5   1  474.48   25.40
   2  -5   1  410.77   26.09
   2  -5   1  479.81   25.08
  -2   5  -1  458.04   24.29
   2  -5   2    0.41    0.74
  -2   5  -2    0.11    0.44
   2  -5   2    0.20    0.81
   2  -5   2    0.32    0.72
  -2   5  -3  235.62   12.67
   2  -5   3  179.59   13.62
  -2   5  -4   23.02    2.96
   2  -5   4   26.52    3.89
   2  -5   5    1.20    1.44
   2  -5   5    1.56    1.00
   2  -5   6    6.75    2.36
   2  -5   6    7.89    1.86
   2  -5   7   18.30    3.43
   2  -5   7   36.23    4.47
   2  -5   8    4.02    1.53
  -2   4  11    4.26    1.24
  -2   4  10   -0.16    0.59
  -2   4  10    0.42    0.89
  -2   4   9   12.09    2.41
  -2   4   9    9.44    1.94
  -2   4   8   29.60    3.79
  -2   4   8   38.31    4.04
   2  -4  -8   34.64    4.64
  -2   4   8   37.01    3.99
  -2   4   8   33.59    3.79
  -2   4   7  136.56    9.53
  -2   4   7  143.13   10.22
  -2   4   7  142.28    9.81
  -2   4   7  136.65    9.52
  -2   4   7  148.62    9.59
  -2   4   7  153.52    9.60
  -2   4   6  133.25    8.96
  -2   4   6  134.75    8.91
  -2   4   6  134.96    8.86
  -2   4   6  142.83    9.03
  -2   4   6  139.86    9.22
  -2   4   5    8.77    1.73
  -2   4   5   10.80    2.00
  -2   4   5   10.50    1.80
  -2   4   5   10.25    1.63
  -2   4   4  568.57   31.22
  -2   4   3  267.98   16.78
  -2   4   2    0.90    1.20
   2  -4  -2    1.02    0.73
   2  -4  -2    0.74    0.83
   2  -4  -1  759.20   43.03
  -2   4   1  882.33   42.79
   2  -4  -1  829.09   42.73
  -2   4   0   39.75    3.47
   2  -4   0   37.82    3.98
   2  -4   0   42.16    3.86
   2  -4   1    1.69    0.87
   2  -4   1    2.90    1.12
   2  -4   2    0.16    0.67
   2  -4   2   -0.16    0.70
   2  -4   3  116.85    8.78
  -2   4  -3  111.73    6.86
   2  -4   3   90.28    7.68
   2  -4   3  117.39    7.71
   2  -4   3  102.14    8.54
   2  -4   4    4.04    1.56
   2  -4   4    1.41    1.50
   2  -4   4    3.74    1.62
   2  -4   5    0.52    1.05
   2  -4   5    0.65    1.50
   2  -4   5    0.20    0.67
   2  -4   6   28.63    4.70
   2  -4   6   26.81    4.12
   2  -4   6   31.21    4.21
   2  -4   7    3.58    2.07
   2  -4   7    2.37    1.67
   2  -4   8   79.72    7.06
   2  -4   8   58.95    6.26
   2  -4   9    2.62    1.27
  -2   3  11    0.29    0.63
  -2   3  10    1.18    0.84
  -2   3  10    1.02    0.88
  -2   3   9  232.93   14.74
  -2   3   9  225.25   14.05
  -2   3   8   20.68    2.93
  -2   3   8   16.81    2.81
  -2   3   7  213.78   12.59
  -2   3   7  205.78   13.15
  -2   3   7  188.97   12.60
   2  -3  -7  183.32   12.99
  -2   3   7  208.63   12.61
  -2   3   7  194.54   12.48
   2  -3  -7  237.60   21.68
  -2   3   6  137.48    8.91
  -2   3   6  138.07    9.01
  -2   3   6  146.93    9.02
  -2   3   6  130.30    9.12
  -2   3   6  144.65    9.10
  -2   3   5  967.18   47.86
  -2   3   5  882.01   47.61
  -2   3   5  977.05   47.93
  -2   3   4  215.10   12.05
  -2   3   4  215.85   12.94
  -2   3   3   50.66    4.79
  -2   3   2  300.06   19.00
  -2   3   2  288.98   17.14
   2  -3  -2  281.50   15.47
   2  -3  -2  291.20   15.99
   2  -3  -1  300.33   16.15
   2  -3  -1  291.04   16.43
   2  -3   0  157.42    9.46
  -2   3   0  165.23    9.28
   2  -3   0  155.93    9.72
   2  -3   1  650.74   31.15
   2  -3   1  602.64   32.52
   2  -3   1  582.08   32.25
   2  -3   2 1928.63   91.26
   2  -3   2 1792.60   92.41
   2  -3   2 1771.57   92.31
   2  -3   3    9.73    1.60
   2  -3   3    8.99    1.15
   2  -3   4    3.86    1.37
   2  -3   4    4.79    1.70
   2  -3   4    2.91    1.38
   2  -3   4    5.45    0.99
   2  -3   5  222.92   14.35
   2  -3   5  223.84   13.99
   2  -3   5  249.70   15.77
   2  -3   5  243.11   16.03
   2  -3   5  209.30   14.41
   2  -3   5  254.42   13.24
   2  -3   6    1.41    1.14
   2  -3   6    1.72    1.18
   2  -3   6    0.97    1.50
   2  -3   6    1.90    0.73
   2  -3   7   14.96    3.45
   2  -3   7   15.72    3.06
   2  -3   7   13.09    2.74
   2  -3   7   17.35    3.14
   2  -3   7   15.86    2.23
   2  -3   8   46.66    5.38
   2  -3   8   42.34    5.10
   2  -3   8   36.70    5.37
   2  -3   9    2.95    1.52
   2  -3   9    1.16    1.25
   2  -3   9    2.19    1.30
   2  -3  10    2.07    1.07
  -2   2  11   87.59    6.20
  -2   2  10   79.32    5.99
  -2   2  10   66.75    5.94
  -2   2   9    7.21    1.93
  -2   2   9    9.28    1.92
  -2   2   8  395.99   21.61
  -2   2   8  347.42   21.09
  -2   2   8  383.84   21.96
  -2   2   7   97.74    7.65
  -2   2   7  105.11    7.97
  -2   2   6  285.99   19.05
   2  -2  -6  314.17   18.46
  -2   2   6  351.28   18.33
  -2   2   6  300.53   18.26
  -2   2   6  343.28   18.35
  -2   2   5    1.63    1.20
  -2   2   5    2.21    0.84
  -2   2   5    2.29    0.80
  -2   2   5    3.16    0.87
  -2   2   5    2.12    0.74
  -2   2   5    2.48    0.83
  -2   2   4   19.50    2.25
  -2   2   4   24.65    3.55
  -2   2   3  817.98   44.46
  -2   2   3  873.36   42.43
  -2   2   3  825.12   43.31
  -2   2   2  963.31   49.86
  -2   2   2  994.68   51.84
  -2   2   1   28.40    1.71
  -2   2   1   25.18    4.43
   2  -2  -1   22.65    2.08
  -2   2   1   23.67    2.83
   2  -2  -1   19.84    1.84
   2  -2   0 1929.84   94.74
   2  -2   0 1876.36   94.89
   2  -2   0 1905.73   94.34
  -2   2   0 1994.09   94.85
   2  -2   1 1935.83   96.57
   2  -2   1 1970.44   96.10
   2  -2   1 2001.08   97.02
   2  -2   1 1959.38   96.89
   2  -2   2  215.33   11.92
   2  -2   2  207.94   11.90
   2  -2   2  220.60   11.25
   2  -2   3   50.19    3.75
   2  -2   3   49.55    3.67
   2  -2   3   53.26    3.35
   2  -2   4   60.76    4.02
   2  -2   5   83.25    7.02
   2  -2   5   92.43    6.84
   2  -2   5   92.48    5.90
   2  -2   5   85.94    6.81
   2  -2   6   52.31    5.55
   2  -2   6   45.26    4.60
   2  -2   6   41.70    4.61
   2  -2   6   46.14    3.72
   2  -2   7   14.22    2.68
   2  -2   7   13.14    2.67
   2  -2   7   14.82    2.77
   2  -2   7   11.15    1.81
   2  -2   7   14.17    3.16
   2  -2   8   50.55    5.77
   2  -2   8   51.18    5.71
   2  -2   8   61.86    6.83
   2  -2   9    9.56    2.46
   2  -2   9   10.50    2.92
   2  -2   9    8.08    2.22
   2  -2   9   10.28    2.80
   2  -2  10    0.26    1.06
   2  -2  10    0.21    0.87
   2  -2  10   -0.54    1.20
  -2   1  10    0.36    0.90
  -2   1   9   93.97    7.10
  -2   1   9   91.20    7.39
  -2   1   9   83.87    7.21
  -2   1   8  176.15   11.89
  -2   1   8  183.13   12.46
  -2   1   7  449.81   25.16
  -2   1   7  406.89   26.94
  -2   1   7  453.32   25.39
   2  -1  -6  113.29   11.66
  -2   1   6   86.50    9.10
  -2   1   6  113.10    7.60
  -2   1   6  103.95    7.35
  -2   1   6   99.55    7.75
  -2   1   5   66.43    4.64
   2  -1  -5   54.25    6.17
   2  -1  -5   58.65    4.52
  -2   1   5   45.96    6.80
  -2   1   5   68.58    4.68
  -2   1   5   40.73    4.12
  -2   1   5   55.43    5.05
  -2   1   4 1640.91   77.44
  -2   1   4 1527.41   77.43
  -2   1   4 1450.37   79.53
  -2   1   3  566.69   29.47
  -2   1   3  591.09   29.71
  -2   1   3  621.26   32.43
  -2   1   2   80.62    5.20
  -2   1   2   80.21    4.68
  -2   1   1   41.63    3.45
   2  -1  -1   40.78    2.58
   2  -1   0 1068.22   58.86
   2  -1   0 1244.64   58.72
   2  -1   0 1239.16   58.65
   2  -1   1 4325.97  212.18
   2  -1   1 4294.91  212.09
   2  -1   1 4426.57  212.17
   2  -1   2 5917.92  290.99
   2  -1   2 6068.77  290.83
   2  -1   2 5925.14  290.43
   2  -1   3  347.34   17.89
   2  -1   3  347.00   17.68
   2  -1   4    1.33    0.50
   2  -1   5    1.16    0.52
   2  -1   6   82.01    6.69
   2  -1   6   92.53    6.65
   2  -1   6   81.63    6.79
   2  -1   6   87.74    5.72
   2  -1   7   90.23    8.08
   2  -1   7   99.47    7.73
   2  -1   7  116.01    8.26
   2  -1   7   95.06    7.94
   2  -1   7  103.21    6.75
   2  -1   8  136.76   10.03
   2  -1   8  136.15   10.35
   2  -1   8  141.95    8.92
   2  -1   8  127.72   10.41
   2  -1   9    0.51    1.08
   2  -1   9   -0.36    1.67
   2  -1   9   -0.34    1.37
   2  -1  10  106.73    9.06
   2  -1  10  128.18   10.28
   2  -1  11    4.67    1.37
   2  -1  11    4.62    1.59
   2  -1  11    3.71    1.47
  -2   0  10   35.12    3.62
  -2   0  10   29.55    3.29
  -2   0   9    3.78    1.37
  -2   0   9    6.20    1.72
  -2   0   8  125.19    9.48
  -2   0   8  126.50    9.10
  -2   0   7  297.63   18.34
  -2   0   7  324.12   20.86
  -2   0   7  327.95   19.06
  -2   0   7  316.95   18.61
  -2   0   6  141.58    9.48
  -2   0   6  141.18    9.74
  -2   0   6  134.50   11.91
   2   0  -6  164.88   13.87
  -2   0   6  160.15   10.08
   2   0  -5  102.56    7.07
  -2   0   5   80.10    9.38
   2   0  -5   91.03    8.36
  -2   0   5   97.36    7.40
  -2   0   5  111.36    7.19
  -2   0   5  105.57    7.38
  -2   0   4    6.37    1.73
  -2   0   4    6.47    1.18
  -2   0   3  449.25   25.44
  -2   0   3  470.69   23.05
  -2   0   2  115.84    8.31
  -2   0   2  106.60    6.17
  -2   0   1    5.80    0.66
  -2   0   1    4.63    0.74
  -2   0   0 2480.54  120.06
  -2   0   0 2505.04  125.41
  -2   0   0 2480.72  120.71
   2   0   0 2423.45  120.29
   2   0   1   56.14    3.36
   2   0   1   52.28    3.63
   2   0   1   56.98    3.41
   2   0   1   60.13    3.01
   2   0   2   80.70    4.02
   2   0   2   79.03    4.57
   2   0   2   73.08    4.18
   2   0   2   74.30    4.39
   2   0   2   73.34    4.02
   2   0   3   95.70    5.60
   2   0   3   94.41    5.25
   2   0   3   92.54    5.10
   2   0   3   85.78    5.03
   2   0   4  276.32   14.12
   2   0   4  240.97   13.37
   2   0   4  260.40   13.38
   2   0   5  100.98    6.26
   2   0   5  115.13    7.04
   2   0   5  101.84    6.13
   2   0   6    1.60    0.63
   2   0   6    3.16    1.08
   2   0   6    0.81    0.89
   2   0   6    3.23    1.04
   2   0   6    1.30    0.87
   2   0   7   37.28    3.82
   2   0   7   36.90    3.11
   2   0   7   32.79    3.90
   2   0   7   32.85    3.96
   2   0   8   42.02    4.45
   2   0   8   40.12    4.67
   2   0   8   39.06    4.71
   2   0   8   39.97    3.59
   2   0   9    8.42    2.38
   2   0   9   12.31    2.47
   2   0   9   12.84    2.87
   2   0  10    6.69    2.30
   2   0  10    6.56    1.86
   2   0  10    7.30    2.62
   2   0  11   94.95    7.91
   2   0  11  114.55    8.61
   2   0  12    0.18    0.82
  -2  -1  10    5.15    1.28
  -2  -1  10    4.78    1.19
  -2  -1   9    9.60    2.08
  -2  -1   9   10.27    2.08
  -2  -1   8  181.38   12.72
  -2  -1   8  201.08   13.42
  -2  -1   7   97.15    7.51
  -2  -1   7  102.08    7.64
  -2  -1   7  104.44    8.12
  -2  -1   6  757.24   40.78
  -2  -1   6  797.61   40.91
  -2  -1   6  719.39   43.70
   2   1  -6  805.03   45.24
  -2  -1   6  816.73   41.45
  -2  -1   5   61.60    4.95
  -2  -1   5   53.08    6.98
  -2  -1   5   71.21    5.31
   2   1  -5   55.45    5.88
  -2  -1   5   64.69    5.29
   2   1  -4   27.48    3.11
  -2  -1   4   32.64    5.54
  -2  -1   4   34.02    3.46
  -2  -1   4   25.21    3.98
  -2  -1   3  308.13   21.99
  -2  -1   3  329.58   18.86
   2   1  -2  357.20   18.87
  -2  -1   2  398.81   21.55
  -2  -1   1  733.36   35.68
  -2  -1   1  768.59   38.11
   2   1  -1  685.73   35.78
  -2  -1   0 2276.66  111.98
   2   1   0 2256.00  109.42
   2   1   0 2232.02  109.35
  -2  -1   0 2217.15  108.96
   2   1   1  992.54   49.57
   2   1   1 1011.04   49.35
   2   1   1  979.30   49.43
   2   1   1 1018.96   49.62
  -2  -1  -1 1017.40   49.13
   2   1   2 9999.00  473.89
   2   1   2 9380.49  473.75
   2   1   2 9706.66  474.24
   2   1   2 9918.87  473.76
   2   1   3  816.73   41.68
   2   1   3  875.98   42.11
   2   1   3  827.42   41.75
   2   1   3  839.09   41.61
   2   1   3  877.29   41.69
   2   1   4    3.58    0.58
   2   1   4    3.74    0.63
   2   1   4    3.18    0.59
   2   1   4    5.19    0.91
   2   1   4    3.45    0.63
   2   1   5  378.35   19.18
   2   1   5  346.09   18.43
   2   1   5  361.38   18.78
   2   1   6  477.29   25.24
   2   1   6  473.57   24.29
   2   1   7  594.57   29.70
   2   1   7  538.48   30.97
   2   1   7  597.11   30.94
   2   1   7  572.24   31.12
   2   1   8  106.22    8.33
   2   1   8  109.43    8.08
   2   1   8  111.84    7.08
   2   1   8  106.20    8.37
   2   1   9   20.12    3.10
   2   1   9   17.49    3.21
   2   1   9   24.24    3.65
   2   1  10  250.99   15.25
   2   1  10  225.63   15.68
   2   1  11   31.50    4.47
   2   1  11   40.59    5.05
   2   1  11   31.53    3.76
   2   1  12    4.29    1.62
   2   1  12    3.67    1.40
  -2  -2   9    5.47    1.41
  -2  -2   9    4.57    1.41
   2   2  -8    7.21    3.35
  -2  -2   8    3.81    1.45
  -2  -2   8    4.97    1.59
   2   2  -7   41.33    6.98
  -2  -2   7   36.48    4.29
  -2  -2   6  202.97   14.59
   2   2  -6  172.08   14.16
  -2  -2   6  206.36   12.71
  -2  -2   6  178.80   14.76
  -2  -2   6  184.49   11.93
  -2  -2   5    3.81    2.14
   2   2  -5    3.09    1.27
  -2  -2   5    3.29    1.11
  -2  -2   5    3.11    1.19
  -2  -2   5    2.36    1.40
  -2  -2   4    0.84    1.78
   2   2  -4    1.90    0.82
  -2  -2   4    1.61    1.60
  -2  -2   4    0.91    0.55
  -2  -2   3  136.22    8.13
  -2  -2   3  138.65    8.77
  -2  -2   2    0.76    3.51
  -2  -2   2   -0.16    0.76
  -2  -2   2    0.46    0.38
  -2  -2   1   24.15    1.84
   2   2  -1   17.75    1.61
  -2  -2   1   20.90    2.88
   2   2   0  197.39   10.47
  -2  -2   0  169.49   13.16
  -2  -2   0  196.85   10.34
   2   2   1 1670.69   81.74
   2   2   1 1662.92   81.71
   2   2   2 6716.81  324.53
   2   2   2 6738.58  324.73
   2   2   2 6559.38  324.52
   2   2   3 1795.14   88.66
   2   2   3 1855.66   88.70
   2   2   3 1804.09   88.94
   2   2   3 1791.27   88.37
   2   2   4 1285.64   65.13
   2   2   4 1300.75   65.12
   2   2   4 1316.01   64.80
   2   2   4 1366.11   65.10
   2   2   4 1318.48   65.01
   2   2   4 1342.04   65.37
   2   2   5    2.37    0.65
   2   2   5    1.33    0.51
   2   2   5    0.98    0.40
   2   2   6  807.52   39.19
   2   2   6  746.24   39.67
   2   2   7  362.62   19.82
   2   2   7  325.35   19.29
   2   2   7  388.49   20.10
   2   2   7  351.13   19.86
   2   2   8   87.15    7.08
   2   2   8   90.46    6.92
   2   2   9  168.31   11.08
   2   2   9  161.90   11.50
   2   2   9  158.08   10.95
   2   2  10  232.23   14.61
   2   2  10  229.61   15.30
   2   2  11    4.19    1.47
   2   2  11    4.96    1.82
   2   2  12    0.69    1.21
   2   2  12    2.14    1.43
  -2  -3   9    4.62    1.21
   2   3  -8   33.72    5.81
  -2  -3   8   22.05    3.16
   2   3  -7   83.48    9.29
  -2  -3   7   82.23    7.33
  -2  -3   7   92.83    8.63
   2   3  -6  105.14    9.56
  -2  -3   6  109.97   10.53
  -2  -3   5  217.93   14.81
  -2  -3   5  219.99   15.71
  -2  -3   5  227.05   13.45
   2   3  -5  209.87   14.04
  -2  -3   4   10.10    1.71
   2   3  -4    7.20    1.48
  -2  -3   4   10.60    2.76
  -2  -3   4    6.15    2.49
  -2  -3   3    5.08    2.31
   2   3  -3    4.08    0.94
  -2  -3   3    4.30    2.66
  -2  -3   3    2.83    0.83
  -2  -3   2  833.41   42.91
  -2  -3   2  901.94   43.48
  -2  -3   1   99.82   15.19
  -2  -3   1  103.95    6.25
  -2  -3   1  109.77    6.94
  -2  -3   0 3451.97  170.51
   2   3   0 3528.51  169.75
   2   3   0 3433.25  169.28
   2   3   1  162.10    8.83
   2   3   1  160.48    8.64
   2   3   2  529.60   26.50
   2   3   2  546.05   27.27
   2   3   3 1986.53   96.62
  -2  -3  -3 1859.28  100.97
  -2  -3  -4  113.78    9.82
   2   3   4  109.53    6.32
   2   3   4  109.07    6.33
   2   3   5  693.07   35.02
   2   3   6   44.98    3.59
   2   3   6   48.19    3.68
   2   3   7   16.56    2.29
   2   3   7   18.68    2.18
   2   3   7   17.36    2.29
   2   3   8   61.87    5.25
   2   3   8   69.93    5.77
   2   3   8   67.61    5.74
   2   3   8   65.16    5.71
   2   3   9   26.18    3.48
   2   3   9   23.82    3.45
   2   3  10  389.11   22.36
   2   3  10  376.91   22.80
   2   3  11    6.02    2.04
   2   3  12   -0.49    1.18
   2   3  12    0.43    0.88
   2   4  -8   23.34    4.18
  -2  -4   8   17.05    2.40
   2   4  -7   34.42    4.99
  -2  -4   7   32.05    3.88
  -2  -4   7   33.73    4.74
   2   4  -6    4.15    1.64
  -2  -4   6    4.46    2.23
  -2  -4   6    6.91    1.94
   2   4  -5   43.52    4.27
  -2  -4   5   39.77    6.30
   2   4  -5   40.74    4.40
  -2  -4   5   32.98    4.59
  -2  -4   4   25.72    4.24
   2   4  -4   31.13    3.21
   2   4  -4   25.78    3.18
  -2  -4   3   10.34    2.73
   2   4  -3   10.17    1.55
   2   4  -3   14.07    2.07
  -2  -4   3   13.52    3.44
  -2  -4   2  399.20   27.62
   2   4  -2  390.67   21.55
   2   4  -2  427.89   22.35
   2   4  -1  282.83   15.29
  -2  -4   1  244.90   22.61
   2   4   0   52.96    3.83
   2   4   1    8.42    1.15
   2   4   2  346.34   18.21
  -2  -4  -2  336.96   28.90
   2   4   2  361.75   19.23
   2   4   3 2431.92  119.04
  -2  -4  -3 2364.75  129.56
   2   4   4   16.17    1.69
   2   4   4   15.80    1.64
   2   4   5  543.00   28.58
   2   4   5  574.83   28.63
   2   4   6   99.96    6.52
   2   4   6  101.48    6.49
   2   4   7   70.22    5.61
   2   4   7   75.02    5.56
   2   4   7   81.63    5.71
   2   4   7   82.23    5.74
   2   4   7   79.00    5.47
   2   4   7   70.09    5.41
   2   4   8    2.25    0.95
   2   4   8    2.38    0.90
   2   4   8    1.09    0.61
   2   4   8    1.85    0.98
   2   4   9    0.23    0.98
   2   4   9    0.16    0.69
   2   4   9    1.11    1.14
   2   4   9   -0.21    0.78
   2   4  10   68.92    6.34
   2   4  10   68.70    6.48
   2   4  11   36.24    4.23
   2   4  11   40.52    4.73
   2   4  12    2.19    1.20
   2   5  -7    4.30    1.67
   2   5  -6    2.48    1.20
  -2  -5   6    4.93    1.93
   2   5  -5   26.75    3.43
  -2  -5   5   29.14    5.02
   2   5  -4    4.25    1.22
  -2  -5   4    4.40    1.86
  -2  -5   4    1.49    1.82
   2   5  -4    2.91    1.06
   2   5  -3   74.65    5.83
  -2  -5   3   67.79    7.45
  -2  -5   3   59.47    7.72
   2   5  -3   73.14    5.26
   2   5  -2  882.80   46.43
   2   5  -2  974.00   47.41
  -2  -5   2  935.09   52.00
  -2  -5   2  923.65   51.39
  -2  -5   1   32.41    4.80
  -2  -5   1   28.32    6.08
   2   5  -1   28.96    2.59
   2   5  -1   27.67    2.84
   2   5   0  220.22   15.87
   2   5   0  192.78   10.92
  -2  -5   0  189.56   13.51
  -2  -5   0  179.86   18.77
   2   5   1  351.13   18.86
  -2  -5  -1  486.60   38.96
   2   5   2    2.38    1.12
   2   5   2    0.82    0.44
   2   5   3  383.06   20.03
   2   5   3  383.74   21.57
   2   5   4   98.30    6.33
   2   5   4  101.41    6.33
   2   5   5  492.05   25.91
   2   5   5  501.74   25.98
   2   5   6 1146.36   58.79
   2   5   6 1197.39   58.85
   2   5   6 1231.75   59.41
   2   5   6 1147.30   59.20
   2   5   6 1171.34   58.81
   2   5   6 1145.86   59.00
   2   5   7  416.33   22.46
   2   5   7  390.28   22.36
   2   5   7  435.99   22.33
   2   5   7  418.06   22.73
   2   5   7  413.90   22.44
   2   5   7  411.80   22.40
   2   5   8  153.67   10.27
   2   5   8  138.84    9.81
   2   5   8  166.81   10.26
   2   5   8  143.23    9.93
   2   5   8  170.64   10.02
   2   5   8  163.98   10.17
   2   5   9  232.43   14.67
   2   5   9  228.02   14.42
   2   5   9  233.52   13.96
   2   5  10  395.31   23.29
   2   5  10  422.87   23.39
   2   5  10  421.64   23.29
   2   5  10  364.43   21.96
   2   5  11   20.66    3.14
   2   5  11   19.77    3.19
   2   5  12    6.67    1.86
   2   5  13    0.60    0.75
   2   6  -6    0.20    0.63
  -2  -6   6   -0.28    0.94
   2   6  -5   12.08    2.12
  -2  -6   5   14.57    3.37
   2   6  -4   -0.16    0.57
  -2  -6   4    0.44    1.78
  -2  -6   3    0.33    0.94
   2   6  -3    0.79    0.66
  -2  -6   3    2.44    2.17
  -2  -6   3   -0.52    1.16
  -2  -6   2  117.36   10.37
   2   6  -2  116.91    7.36
   2   6  -2  113.24    7.82
  -2  -6   2  100.30   10.78
   2   6  -1   72.48    5.16
   2   6  -1   73.42    5.53
  -2  -6   1   79.83    8.78
  -2  -6   1   74.49    8.40
   2   6   0  104.49    6.71
   2   6   0  110.29    7.04
  -2  -6   0  100.84   11.09
  -2  -6   0   93.13    9.52
  -2  -6   0  107.38   12.09
   2   6   1  487.31   26.56
   2   6   1  483.20   25.26
  -2  -6  -1  452.60   37.49
  -2  -6  -1  471.19   29.05
   2   6   2  669.27   33.77
   2   6   2  731.48   33.66
   2   6   2  755.59   36.29
   2   6   3  710.32   36.85
   2   6   3  764.27   39.42
   2   6   3  724.19   37.16
   2   6   4   22.25    2.30
   2   6   4   24.43    2.73
   2   6   4   22.61    2.32
   2   6   4   20.88    2.28
   2   6   4   18.28    1.98
   2   6   5  228.09   11.91
   2   6   5  214.92   11.91
   2   6   5  181.92   12.77
   2   6   5  217.24   12.41
   2   6   5  196.55   11.86
   2   6   6  143.14    8.89
   2   6   6  146.16    8.99
   2   6   6  150.71    8.92
   2   6   6  143.23    9.53
   2   6   6  142.43    9.22
   2   6   7    1.02    0.88
   2   6   7    1.16    0.70
   2   6   7    0.42    0.60
   2   6   7    1.17    0.71
   2   6   7    0.50    0.72
   2   6   8  197.12   11.93
   2   6   8  191.35   11.93
   2   6   8  172.85   11.67
   2   6   8  205.58   11.82
   2   6   8  183.66   11.78
   2   6   8  190.38   12.10
   2   6   9    0.65    1.00
   2   6   9    0.78    0.87
   2   6   9    0.35    0.70
   2   6  10  135.68    9.84
   2   6  10  130.51    9.51
   2   6  10  131.16    8.99
   2   6  10  123.50    9.60
   2   6  11    0.44    0.99
   2   6  11    0.24    0.87
   2   6  12    1.63    1.04
   2   6  12    1.44    1.09
   2   6  13    2.04    0.94
   2   7  -6    0.15    0.51
   2   7  -5    9.04    1.73
  -2  -7   5   11.23    2.53
   2   7  -4   93.82    6.67
  -2  -7   4   91.29    8.74
  -2  -7   3   11.37    3.47
  -2  -7   3   13.57    3.38
   2   7  -3   17.74    2.26
  -2  -7   2    3.29    2.00
  -2  -7   2    1.33    1.71
   2   7  -2    4.55    1.13
   2   7  -1  187.04   11.14
  -2  -7   1  188.27   16.08
   2   7   0  193.24   11.12
   2   7   0  187.31   11.32
  -2  -7   0  163.21   14.89
   2   7   0  181.41   12.56
   2   7   1   10.67    2.50
  -2  -7  -1   10.50    3.09
   2   7   1   10.52    1.77
  -2  -7  -1    9.09    4.90
  -2  -7  -2    0.82    1.05
  -2  -7  -2    1.17    4.97
   2   7   2    2.28    1.42
   2   7   3    6.71    1.39
  -2  -7  -3    4.98    7.70
   2   7   3    6.89    1.30
   2   7   3    4.03    1.84
   2   7   4    0.60    0.56
   2   7   4    1.18    0.63
   2   7   4    0.38    0.49
   2   7   4    0.75    0.80
   2   7   5    0.16    0.71
   2   7   5    0.22    0.47
   2   7   5   -0.13    0.43
   2   7   5   -0.12    0.48
   2   7   5    1.21    1.17
   2   7   6   -0.16    0.70
   2   7   6    0.73    0.66
   2   7   6    0.14    0.52
   2   7   6    1.41    0.66
   2   7   6   -0.20    0.82
   2   7   7   10.47    2.06
   2   7   7   13.73    2.33
   2   7   7   14.84    2.07
   2   7   7   15.59    2.23
   2   7   7   17.93    2.57
   2   7   7   16.65    2.21
   2   7   8   48.81    4.52
   2   7   8   47.03    4.51
   2   7   8   50.26    4.64
   2   7   8   43.76    4.38
   2   7   8   50.44    4.79
   2   7   8   53.96    4.49
   2   7   9  193.77   12.43
   2   7   9  208.99   13.01
   2   7   9  190.94   12.24
   2   7  10   -0.23    0.90
   2   7  10    0.20    0.64
   2   7  10   -0.18    0.91
   2   7  10    0.23    0.84
   2   7  11   16.97    2.74
   2   7  11   16.17    2.57
   2   7  11   14.31    2.59
   2   7  12    5.63    1.45
   2   7  12    5.51    1.61
   2   7  13    4.06    1.14
   2   8  -5   14.09    1.89
   2   8  -4    5.28    1.24
   2   8  -3   16.14    2.15
  -2  -8   3   15.04    3.62
  -2  -8   2    3.61    2.21
   2   8  -2    4.34    1.14
  -2  -8   1   14.28    3.98
   2   8  -1   11.92    1.89
   2   8   0   40.30    3.69
   2   8   0   37.20    4.94
   2   8   1    4.50    2.04
  -2  -8  -1    3.62    2.41
  -2  -8  -1    6.34    3.32
   2   8   2    0.83    0.80
  -2  -8  -2    2.82    1.81
  -2  -8  -2   -0.80    3.58
   2   8   2    1.67    1.61
   2   8   3   84.48    6.45
   2   8   3   89.59    6.44
  -2  -8  -3   77.77   13.22
  -2  -8  -4   10.27    6.82
   2   8   4    9.89    1.69
   2   8   4    7.43    1.51
   2   8   5   16.03    2.15
   2   8   5   13.98    2.00
   2   8   5   12.92    2.99
  -2  -8  -5   16.74    8.33
   2   8   6   23.71    2.73
   2   8   6   24.27    2.82
   2   8   6   30.40    2.95
   2   8   6   23.19    3.40
   2   8   7  209.24   12.65
   2   8   7  176.86   11.49
   2   8   7  182.66   11.38
   2   8   7  185.12   11.36
   2   8   8   24.63    3.27
   2   8   8   24.32    2.98
   2   8   8   22.55    2.96
   2   8   8   24.91    3.14
   2   8   8   23.88    2.87
   2   8   9   36.20    3.89
   2   8   9   36.82    3.75
   2   8   9   37.15    4.15
   2   8   9   38.73    3.99
   2   8  10   20.60    2.86
   2   8  10   19.77    2.69
   2   8  10   24.16    3.28
   2   8  11    6.90    1.61
   2   8  11    6.98    1.73
   2   8  11   10.50    2.15
   2   8  12    0.92    0.76
   2   8  12    0.69    0.73
   2   9  -3   29.65    2.74
  -2  -9   3   20.69    3.64
   2   9  -2    0.13    0.54
  -2  -9   2    2.05    1.66
  -2  -9   1    5.84    2.51
   2   9  -1    4.25    1.13
  -2  -9   0   87.01   10.00
  -2  -9  -1    0.52    1.17
  -2  -9  -2  293.20   21.83
   2   9   2  304.50   20.15
  -2  -9  -2  328.37   23.64
  -2  -9  -3  101.49   12.74
  -2  -9  -4    7.80    4.60
   2   9   4    4.04    1.23
   2   9   4    5.54    2.40
   2   9   5   24.98    3.04
   2   9   5   38.67    3.45
  -2  -9  -5   29.40    5.19
   2   9   5   33.57    4.73
  -2  -9  -5   32.74    8.16
   2   9   6   87.29    6.25
   2   9   6   79.50    6.24
  -2  -9  -6  104.28   10.06
   2   9   6   84.08    7.58
   2   9   7    0.31    0.56
   2   9   7    0.46    0.94
   2   9   8    2.96    1.07
   2   9   8    3.63    1.19
   2   9   8    3.64    1.47
   2   9   9   13.38    2.07
   2   9   9   10.90    1.99
   2   9   9    9.93    1.89
   2   9   9   11.58    2.25
   2   9  10    6.64    1.55
   2   9  10    8.17    1.62
   2   9  10    9.38    1.96
   2   9  11    4.34    1.32
   2   9  11    4.26    1.18
   2   9  11    2.93    1.24
   2   9  12    3.93    1.11
   2   9  12    6.34    1.39
  -2 -10   2    0.53    0.83
  -2 -10   1    4.70    2.04
  -2 -10   0   27.50    4.87
  -2 -10  -1   38.37    5.48
  -2 -10  -1   38.90    5.98
  -2 -10  -2   72.14    8.17
  -2 -10  -2   63.85    8.00
  -2 -10  -3   10.02    3.24
  -2 -10  -4    0.45    1.43
   2  10   4    1.05    1.74
  -2 -10  -5    6.18    2.49
   2  10   5    6.30    2.24
  -2 -10  -6    0.90    1.30
   2  10   6    4.13    1.56
   2  10   7    1.19    0.77
   2  10   7    1.58    1.13
   2  10   8    2.26    1.19
   2  10   8    2.12    0.92
   2  10   9   14.88    2.52
   2  10   9   18.63    2.36
   2  10  10   11.07    1.78
   2  10  10   11.08    2.03
   2  10  11    0.13    0.61
   2  10  11    0.26    0.49
   2  10  11   -0.15    0.59
  -2 -11   0    6.66    2.00
  -2 -11  -1   29.30    4.61
  -2 -11  -2    1.93    1.44
  -2 -11  -2    1.49    1.26
   2  11   2   -0.59    1.43
  -2 -11  -3    2.19    1.69
   2  11   3    1.71    1.42
  -2 -11  -4    4.21    2.16
   2  11   4    3.96    1.67
  -2 -11  -5   20.85    4.07
   2  11   5   16.94    2.95
  -2 -11  -6    9.13    2.79
   2  11   6    9.82    2.18
   2  11   7   24.69    3.17
   2  11   8  104.49    7.56
   2  11   9    2.21    1.00
   2  11  10   13.38    2.02
   2  11  11   11.23    1.70
   2  12   2    0.75    0.69
  -2 -12  -3    0.50    0.85
   2  12   3    0.50    0.77
  -2 -12  -4   28.63    3.92
   2  12   4   11.46    2.12
  -2 -12  -5   18.30    3.34
   2  12   5   11.02    1.97
  -2 -12  -6   15.91    3.10
   2  12   6   10.60    1.88
   2  12   7   67.46    5.17
   2  12   8    0.38    0.51
   2  12   9    0.56    0.58
  -3  12   4   11.16    1.77
  -3  12   3    2.02    1.01
  -3  11   7    2.08    0.71
  -3  11   7    1.79    0.72
  -3  11   6    0.28    0.64
  -3  11   5    0.30    0.58
  -3  11   5    0.57    0.81
  -3  11   4   10.36    1.94
  -3  11   4    8.17    2.27
  -3  11   3    0.56    0.84
  -3  11   2   10.77    2.05
  -3  11   1    0.47    0.73
  -3  11   0   13.51    1.95
  -3  11  -1   -0.23    0.52
  -3  10   9   52.26    3.98
   3 -10  -9   67.28    5.00
  -3  10   8    1.56    0.68
  -3  10   8    1.99    0.73
  -3  10   7   18.61    2.39
  -3  10   7   20.17    2.55
  -3  10   6    3.99    1.31
  -3  10   5   18.56    3.22
  -3  10   5   15.97    2.56
  -3  10   4   11.32    2.35
  -3  10   3   54.75    5.49
  -3  10   2    0.24    0.88
   3 -10  -2    2.69    1.91
   3 -10  -1    0.45    1.29
  -3  10   1    0.69    0.89
  -3  10   0   41.77    4.58
   3 -10   0   72.39    7.77
  -3  10  -1    8.07    1.79
   3 -10   1   13.67    3.29
   3 -10   2    0.15    0.66
   3 -10   2    0.30    0.94
   3  -9  -9   27.98    3.33
  -3   9   9   27.82    2.80
  -3   9   8    2.37    0.89
  -3   9   8    2.39    0.97
  -3   9   7    0.85    0.79
  -3   9   6   75.11    6.20
  -3   9   6   73.37    6.52
  -3   9   5   94.93    7.47
  -3   9   5   81.49    8.05
  -3   9   4  132.56    9.85
  -3   9   3   64.17    6.23
  -3   9   2   53.25    5.77
   3  -9  -2   71.68    8.30
   3  -9  -1  199.00   16.41
   3  -9   0    9.80    3.18
   3  -9   1   21.74    4.61
   3  -9   2    1.04    0.89
   3  -9   2    1.24    1.40
   3  -9   3    0.19    0.73
   3  -9   3    0.68    1.31
   3  -9   4   21.27    2.71
  -3   8  10    1.31    0.64
   3  -8 -10    2.05    0.99
  -3   8   9    3.39    1.09
   3  -8  -9    4.01    1.35
  -3   8   8   14.24    2.19
  -3   8   8   17.41    2.49
  -3   8   7    9.66    1.92
  -3   8   6   -0.48    0.93
  -3   8   6    0.42    0.77
  -3   8   5  194.43   13.07
  -3   8   5  200.01   14.50
  -3   8   4   13.19    3.20
  -3   8   4   13.35    2.64
  -3   8   3   -0.25    1.01
   3  -8  -3    1.28    1.34
  -3   8   3    0.39    1.43
  -3   8   2   41.90    4.84
  -3   8   2   38.08    5.72
   3  -8  -2   38.49    5.08
   3  -8  -2   41.04    4.97
  -3   8   1    7.90    2.93
   3  -8  -1   11.10    2.52
   3  -8  -1   12.89    2.91
   3  -8  -1   15.19    3.90
   3  -8   0  191.16   14.39
   3  -8   0  205.55   14.41
   3  -8   1   20.11    3.12
   3  -8   1   24.29    4.99
   3  -8   2    2.82    1.36
   3  -8   2    1.40    1.47
   3  -8   3    4.43    1.65
   3  -8   3    3.41    1.91
   3  -8   4   11.20    2.27
   3  -8   5    5.36    1.45
   3  -7 -10   10.39    2.05
  -3   7  10    9.22    1.66
   3  -7  -9    5.24    1.66
  -3   7   9    6.21    1.54
   3  -7  -8    0.23    0.68
  -3   7   8    0.56    0.63
  -3   7   7   20.53    2.79
  -3   7   7   19.27    2.75
  -3   7   7   16.56    2.75
  -3   7   6   25.62    3.54
  -3   7   6   21.70    3.43
  -3   7   6   27.92    3.51
  -3   7   5  975.46   48.39
  -3   7   5  921.93   49.57
  -3   7   5  823.60   49.09
  -3   7   4  163.59   13.11
  -3   7   4  173.74   11.83
  -3   7   3    2.11    1.21
  -3   7   3    5.25    2.27
  -3   7   2   71.21    7.72
   3  -7  -2   71.60    7.03
  -3   7   2   67.11    6.36
   3  -7  -2   76.03    6.80
  -3   7   1   47.25    6.03
   3  -7  -1   37.41    4.96
   3  -7  -1   45.96    6.23
   3  -7  -1   47.33    5.19
   3  -7   0    9.04    2.25
   3  -7   0    8.35    2.25
   3  -7   0    5.64    2.46
   3  -7   1  407.25   23.85
   3  -7   1  386.26   23.80
   3  -7   1  425.13   27.06
   3  -7   2   38.94    4.75
   3  -7   2   44.57    6.52
   3  -7   3  251.48   16.49
   3  -7   3  293.19   19.85
   3  -7   4    0.73    1.04
   3  -7   5   16.59    2.79
   3  -7   6   -0.34    0.62
   3  -6 -10   13.55    2.51
  -3   6  10   14.97    2.22
   3  -6  -9   14.08    2.63
  -3   6   9   14.61    2.38
   3  -6  -8    0.25    0.64
  -3   6   8   -0.19    0.74
  -3   6   7   78.09    6.47
  -3   6   7   77.10    6.23
  -3   6   6  543.86   28.14
  -3   6   6  470.90   28.07
  -3   6   5  327.33   19.80
  -3   6   5  308.69   19.82
  -3   6   5  323.56   19.03
  -3   6   4   66.88    6.07
  -3   6   4   63.87    6.98
  -3   6   3   56.95    6.73
  -3   6   3   62.93    5.71
  -3   6   2  389.38   25.65
  -3   6   2  425.46   24.04
   3  -6  -2  406.87   24.51
   3  -6  -2  422.78   24.07
   3  -6  -1   20.66    3.66
   3  -6  -1   19.47    2.97
   3  -6  -1   21.48    3.31
   3  -6  -1   24.36    4.15
   3  -6   0  295.75   19.90
   3  -6   0  281.88   17.47
   3  -6   0  290.54   17.95
   3  -6   1   42.37    4.66
   3  -6   1   35.33    4.27
   3  -6   1   38.86    5.60
   3  -6   2  706.02   35.92
  -3   6  -2  612.59   34.46
   3  -6   2  649.65   35.73
   3  -6   2  699.68   38.78
  -3   6  -3  280.35   17.22
   3  -6   3  320.78   20.93
  -3   6  -4   20.58    3.46
   3  -6   4   21.20    3.34
   3  -6   5   24.99    3.95
   3  -6   5   25.32    3.62
   3  -6   6    1.66    1.43
   3  -6   6    0.44    0.89
   3  -6   7    5.51    1.69
   3  -6   8    0.93    0.83
  -3   5  11   13.58    1.80
  -3   5  10    9.26    1.61
  -3   5  10    9.92    1.86
  -3   5   9    4.32    1.26
  -3   5   9    2.40    1.19
   3  -5  -9    2.25    1.26
  -3   5   8    6.81    1.80
   3  -5  -8    6.22    1.98
   3  -5  -8    4.03    1.57
  -3   5   8    7.60    1.79
  -3   5   7   42.61    5.22
  -3   5   7   52.24    4.89
  -3   5   7   46.31    4.50
  -3   5   7   53.21    4.79
  -3   5   6    0.20    0.72
  -3   5   6   -0.18    0.74
  -3   5   5    0.76    0.85
  -3   5   5   -0.24    0.91
  -3   5   4   35.41    4.66
  -3   5   4   36.79    4.05
  -3   5   3  181.57   13.60
  -3   5   3  191.10   12.10
  -3   5   2   25.96    4.18
  -3   5   2   21.94    2.95
   3  -5  -2   21.48    3.15
   3  -5  -1  194.81   12.69
   3  -5  -1  158.37   11.38
   3  -5  -1  192.19   12.92
   3  -5  -1  169.81   11.19
   3  -5   0  283.05   16.12
   3  -5   0  229.63   14.60
   3  -5   0  229.77   14.86
   3  -5   0  248.25   16.39
  -3   5  -1    0.81    0.54
   3  -5   1    0.38    0.69
   3  -5   1    0.81    0.94
  -3   5  -2  356.11   20.05
   3  -5   2  368.94   21.26
   3  -5   2  388.54   21.38
   3  -5   2  378.62   23.57
   3  -5   3   30.17    3.60
  -3   5  -3   25.30    2.99
   3  -5   4   96.54    7.71
   3  -5   5  116.69    9.08
   3  -5   5  121.79    9.51
   3  -5   6    6.40    1.90
   3  -5   6    4.90    1.95
   3  -5   7    8.64    2.41
   3  -5   8   -0.23    1.07
   3  -5   9    5.45    1.40
  -3   4  11   11.87    1.67
  -3   4  10    1.44    0.81
  -3   4  10    1.57    0.87
   3  -4  -9    8.62    2.48
  -3   4   9   10.40    2.16
  -3   4   9   11.22    2.04
  -3   4   8    6.75    1.85
   3  -4  -8    5.00    1.75
   3  -4  -8    3.02    1.94
  -3   4   8    6.30    1.68
   3  -4  -7    6.70    1.87
  -3   4   7    6.82    1.69
  -3   4   7    8.36    1.76
  -3   4   7    6.20    2.02
  -3   4   6    2.69    1.06
  -3   4   6    0.88    0.79
  -3   4   6    1.04    0.78
  -3   4   5    5.62    1.42
  -3   4   5    4.86    1.44
  -3   4   4    1.18    0.92
  -3   4   4    2.50    1.21
  -3   4   3  151.83    9.61
  -3   4   3  133.22   10.57
  -3   4   2   48.98    5.43
   3  -4  -2   44.76    4.14
   3  -4  -1 2189.96  109.85
  -3   4   1 2406.75  112.28
   3  -4  -1 2128.88  110.13
   3  -4   0   20.64    2.63
   3  -4   0   18.05    2.37
   3  -4   1 2368.14  121.65
   3  -4   1 2544.75  121.98
   3  -4   2   25.80    2.96
   3  -4   2   21.63    2.71
   3  -4   3   93.92    6.62
   3  -4   3   83.63    6.25
   3  -4   3   84.67    6.33
   3  -4   4   10.04    2.08
   3  -4   4    8.73    2.19
   3  -4   4   11.57    2.77
   3  -4   4    8.53    1.86
   3  -4   5    2.20    1.18
   3  -4   5    2.42    1.55
   3  -4   5    2.31    1.95
   3  -4   5    3.65    1.41
   3  -4   6    1.17    1.59
   3  -4   6    1.09    1.81
   3  -4   6    1.10    1.07
   3  -4   6    0.92    0.98
   3  -4   7   13.02    3.01
   3  -4   7   14.63    3.59
   3  -4   7   16.57    3.32
   3  -4   8   58.68    6.41
   3  -4   8  104.21    8.06
   3  -4   9    4.06    1.54
  -3   3  10    6.96    1.43
  -3   3  10    5.88    1.48
  -3   3   9    0.65    0.78
  -3   3   9   -0.18    0.81
  -3   3   8    4.08    1.42
  -3   3   8    4.88    1.58
   3  -3  -8    5.26    1.99
   3  -3  -8    2.96    2.02
  -3   3   7    8.45    2.22
   3  -3  -7   11.05    3.45
   3  -3  -7    9.30    2.23
  -3   3   7   12.04    2.19
  -3   3   7   12.42    2.19
   3  -3  -6    1.59    0.90
  -3   3   6    3.60    1.18
  -3   3   6    3.76    1.12
  -3   3   5   37.26    3.59
  -3   3   5   36.35    3.58
  -3   3   5   36.92    3.64
  -3   3   4    6.10    1.54
  -3   3   4    4.91    1.22
  -3   3   3 1347.10   68.97
  -3   3   2  266.92   19.45
  -3   3   2  268.04   16.56
   3  -3  -1  262.90   14.50
  -3   3   1  249.11   19.34
  -3   3   1  273.03   16.46
   3  -3  -1  271.49   14.83
   3  -3   0 3135.84  157.09
   3  -3   0 3240.44  156.92
   3  -3   1  429.22   22.76
   3  -3   1  426.65   22.88
   3  -3   2  173.91   10.29
   3  -3   2  177.96   10.45
   3  -3   2  165.48   10.29
   3  -3   3  626.79   33.43
   3  -3   3  612.80   33.09
   3  -3   3  654.23   32.25
   3  -3   4   14.64    2.53
   3  -3   4   13.89    2.81
   3  -3   4   18.61    2.63
   3  -3   4   17.82    1.94
   3  -3   4   23.39    3.44
   3  -3   5    2.43    1.33
   3  -3   5    2.27    1.59
   3  -3   5    1.49    1.02
   3  -3   5    1.85    0.95
   3  -3   5    3.95    1.96
   3  -3   5    1.12    0.68
   3  -3   6   17.71    3.20
   3  -3   6   23.15    3.42
   3  -3   6   25.75    4.17
   3  -3   6   26.76    4.20
   3  -3   6   21.30    2.50
   3  -3   6   21.75    3.08
   3  -3   7   55.38    6.13
   3  -3   7   58.53    6.63
   3  -3   7   53.15    5.74
   3  -3   7   47.57    6.20
   3  -3   7   56.13    4.62
   3  -3   7   43.31    5.29
   3  -3   8   21.25    4.11
   3  -3   8   29.32    4.26
   3  -3   8   20.04    3.87
   3  -3   8   15.47    3.21
   3  -3   9    4.46    1.79
   3  -3   9    2.97    1.50
   3  -3   9    2.76    1.68
   3  -3  10   28.68    3.36
  -3   2  10   11.07    1.91
  -3   2   9   18.38    2.86
  -3   2   9   17.64    2.59
  -3   2   8   84.99    6.88
   3  -2  -8   88.60   11.31
  -3   2   8   76.18    6.77
  -3   2   7  234.61   15.32
   3  -2  -7  237.95   15.64
  -3   2   7  242.62   14.96
   3  -2  -7  248.95   19.93
   3  -2  -6  129.87   11.35
  -3   2   6  124.67    8.44
  -3   2   6  105.62    9.35
   3  -2  -6  121.26    8.74
  -3   2   6  126.90    8.45
  -3   2   5   97.98    6.50
  -3   2   5   82.87    7.72
   3  -2  -5   84.94    6.53
  -3   2   5   97.11    6.52
  -3   2   5   89.49    6.40
  -3   2   4  229.71   13.02
  -3   2   4  227.66   13.06
  -3   2   4  219.48   15.53
  -3   2   3 3866.90  190.70
  -3   2   3 3891.94  193.10
  -3   2   2  269.26   19.34
  -3   2   2  293.65   16.63
   3  -2  -1  921.39   46.85
  -3   2   1  985.41   48.87
  -3   2   1  943.12   54.15
   3  -2   0 1809.27   88.74
   3  -2   0 1784.93   88.60
   3  -2   1  589.96   30.79
   3  -2   1  626.50   30.65
   3  -2   1  587.40   30.71
   3  -2   2 1659.41   80.63
   3  -2   2 1588.06   80.59
   3  -2   3   30.16    2.96
   3  -2   3   28.77    2.69
   3  -2   3   29.27    2.31
   3  -2   4   67.39    5.26
   3  -2   4   63.47    4.33
   3  -2   5   20.36    2.78
   3  -2   5   18.52    2.99
   3  -2   5   20.81    3.37
   3  -2   5   18.25    2.02
   3  -2   5   16.48    2.39
   3  -2   5   17.01    2.58
   3  -2   6   57.78    5.97
   3  -2   6   78.84    6.61
   3  -2   6   71.28    7.09
   3  -2   6   80.36    6.27
   3  -2   6   80.95    5.53
   3  -2   7   12.81    3.21
   3  -2   7   13.80    2.59
   3  -2   7   11.27    1.85
   3  -2   7    8.66    2.15
   3  -2   7   16.76    3.44
   3  -2   8  135.83   10.61
   3  -2   8  115.88    9.76
   3  -2   8  118.15   10.76
   3  -2   9   68.24    6.95
   3  -2   9   50.99    6.14
   3  -2   9   60.80    6.06
   3  -2  10   -0.22    0.92
   3  -2  10    1.75    1.68
   3  -2  10    0.22    0.88
   3  -2  10   -0.28    1.13
   3  -2  11   11.32    2.22
  -3   1  10   10.10    1.73
  -3   1   9    3.61    1.17
  -3   1   9    1.63    1.05
  -3   1   9    1.36    0.97
  -3   1   8   96.27    7.69
  -3   1   8  104.94    8.13
  -3   1   7  113.38    8.72
  -3   1   7  131.15   11.22
   3  -1  -7  132.34   13.14
  -3   1   7  133.24    9.39
  -3   1   7  137.63    9.52
  -3   1   6  121.98    9.56
  -3   1   6  113.07   11.63
   3  -1  -6  140.25    9.58
  -3   1   6  138.06    9.18
  -3   1   6  134.72    9.33
   3  -1  -6  128.68   11.36
   3  -1  -5  382.57   25.23
  -3   1   5  445.89   30.33
   3  -1  -5  455.15   24.38
  -3   1   5  473.27   24.20
  -3   1   5  409.58   25.52
  -3   1   5  478.49   24.26
   3  -1  -4  336.18   19.26
  -3   1   4  355.86   22.16
  -3   1   4  372.49   19.20
  -3   1   3  217.82   12.33
  -3   1   3  238.59   15.65
  -3   1   2 4900.34  239.85
  -3   1   1  315.08   21.39
  -3   1   1  296.37   16.41
   3  -1  -1  295.15   15.25
  -3   1   0  375.42   19.88
   3  -1   0  357.92   18.62
   3  -1   1  579.43   28.43
   3  -1   1  537.66   28.13
   3  -1   2 5453.26  271.64
   3  -1   2 5663.88  271.57
   3  -1   3 3053.58  145.58
   3  -1   3 2904.90  145.08
   3  -1   3 2943.88  144.69
   3  -1   4    4.81    0.87
   3  -1   4    2.69    0.91
   3  -1   4    4.76    0.90
   3  -1   5   -0.21    1.12
   3  -1   5    0.16    0.60
   3  -1   5   -0.09    0.35
   3  -1   6   14.46    2.50
   3  -1   6   18.35    2.62
   3  -1   6   19.26    2.10
   3  -1   7   82.11    7.14
   3  -1   7   73.74    6.48
   3  -1   7   76.04    6.82
   3  -1   7   89.99    7.48
   3  -1   7   83.21    5.88
   3  -1   8   11.44    2.68
   3  -1   8   15.65    3.58
   3  -1   8   12.21    2.51
   3  -1   8   10.59    2.42
   3  -1   8   10.28    2.91
   3  -1   8   10.14    1.83
   3  -1   9   11.48    3.23
   3  -1   9    8.10    2.21
   3  -1   9   10.11    2.91
   3  -1   9   11.60    2.60
   3  -1  10   15.71    3.32
   3  -1  10    8.84    2.21
   3  -1  10   13.93    3.20
   3  -1  11    0.24    0.91
   3  -1  11    1.01    1.17
  -3   0  10    5.99    1.28
   3   0  -9    8.07    2.84
  -3   0   9    5.83    1.58
  -3   0   9    4.55    1.38
   3   0  -8    2.56    2.02
  -3   0   8    1.92    1.10
  -3   0   8    2.80    1.16
  -3   0   7   58.56    5.47
   3   0  -7   80.09    9.18
  -3   0   7   63.39    7.24
  -3   0   7   64.03    5.86
  -3   0   6  209.64   13.16
  -3   0   6  225.86   13.79
   3   0  -6  206.23   15.41
  -3   0   6  186.18   16.15
  -3   0   6  229.80   13.67
   3   0  -5    6.53    1.79
  -3   0   5    8.55    2.06
  -3   0   5    5.77    3.33
   3   0  -5    6.33    1.58
  -3   0   5    8.10    2.07
   3   0  -4  160.52   10.92
  -3   0   4  158.93   12.30
   3   0  -4  179.50   10.86
  -3   0   4  196.00   10.71
  -3   0   3  805.77   40.97
  -3   0   3  830.72   44.89
  -3   0   2  242.06   13.06
  -3   0   2  256.07   16.22
  -3   0   1   39.42    2.81
  -3   0   0 1570.62   78.66
  -3   0   0 1743.43   86.38
   3   0   0 1596.30   78.25
   3   0   1 4514.51  219.94
  -3   0  -1 4402.50  220.30
   3   0   1 4574.45  219.94
   3   0   2 1699.18   83.97
   3   0   2 1730.35   84.58
   3   0   2 1716.67   84.28
   3   0   3    3.26    0.82
   3   0   3    3.95    0.64
   3   0   3    3.28    0.69
   3   0   4   20.36    2.24
   3   0   4   23.33    2.00
   3   0   4   18.59    1.75
   3   0   5  833.11   43.44
   3   0   5  855.67   42.54
   3   0   6  130.26    8.84
   3   0   6  107.13    8.40
   3   0   6  131.14    8.66
   3   0   6  130.13    7.63
   3   0   7   10.54    2.24
   3   0   7    7.82    1.95
   3   0   7    7.65    1.82
   3   0   7    8.59    1.97
   3   0   7    8.22    1.38
   3   0   8  352.07   18.68
   3   0   8  311.91   20.17
   3   0   9   51.40    6.09
   3   0   9   28.35    4.17
   3   0  10   17.20    3.75
   3   0  10   12.83    3.04
   3   0  11   16.19    3.21
   3   0  11    7.40    2.34
   3   0  12    5.05    1.45
   3   0  12    5.76    1.71
   3   1  -9   47.40    6.05
  -3  -1   9   33.87    3.73
   3   1  -8   22.68    4.83
  -3  -1   8   19.20    3.15
  -3  -1   7    9.58    1.94
  -3  -1   7   10.66    2.99
   3   1  -7    9.41    2.98
  -3  -1   6   37.63    3.99
  -3  -1   6   42.99    4.18
   3   1  -6   37.69    5.13
  -3  -1   6   37.90    5.90
  -3  -1   5  347.91   19.00
  -3  -1   5  334.71   19.23
   3   1  -5  309.86   19.71
  -3  -1   5  288.26   23.16
  -3  -1   5  362.70   19.64
   3   1  -4   39.65    3.81
  -3  -1   4   42.95    7.82
  -3  -1   4   35.45    4.26
  -3  -1   3  315.20   25.75
  -3  -1   3  397.91   22.70
   3   1  -2  443.64   23.33
  -3  -1   2  455.77   26.64
  -3  -1   1   38.81    4.55
   3   1  -1   42.62    3.16
  -3  -1   1   39.29    2.77
  -3  -1   0  687.83   35.08
  -3  -1   0  730.65   39.77
   3   1   0  724.72   35.46
   3   1   0  729.73   35.72
   3   1   1  526.22   26.63
   3   1   1  536.86   26.83
   3   1   1  530.23   26.43
  -3  -1  -1  536.84   32.65
   3   1   2   17.81    1.46
   3   1   2   16.17    1.50
   3   1   2   16.55    1.89
   3   1   3  375.75   19.40
   3   1   3  402.87   19.80
   3   1   3  368.06   18.99
   3   1   4    0.87    0.42
   3   1   4    0.46    0.37
   3   1   4    0.36    0.47
   3   1   5   39.64    3.42
   3   1   5   37.86    2.83
   3   1   6  123.28    8.09
   3   1   6  120.70    7.25
   3   1   7  191.37   10.82
   3   1   7  183.04   11.80
   3   1   8  240.46   15.15
   3   1   8  241.25   13.68
   3   1   9   27.87    2.90
   3   1   9   18.89    3.39
   3   1  10   93.52    8.56
   3   1  10   62.29    6.64
   3   1  11   22.15    4.00
   3   1  11   16.73    3.27
   3   1  12   42.67    4.75
   3   1  12   53.38    5.24
   3   2  -9    8.98    2.23
  -3  -2   9    8.74    1.64
   3   2  -8    1.15    1.40
  -3  -2   8    0.42    1.02
   3   2  -7  105.67    9.77
   3   2  -6  344.82   22.06
  -3  -2   6  379.96   23.87
  -3  -2   5   38.04    3.72
   3   2  -5   28.90    3.82
  -3  -2   5   31.61    5.63
  -3  -2   4   81.22    5.87
   3   2  -4   76.99    5.98
  -3  -2   4   64.76    9.08
  -3  -2   4   89.18    6.60
  -3  -2   4   68.13    8.04
  -3  -2   3  191.12   11.05
   3   2  -3  181.61   10.91
  -3  -2   3  183.70   12.38
  -3  -2   2  684.49   33.86
  -3  -2   2  610.07   36.29
  -3  -2   1  249.95   13.30
  -3  -2   1  282.01   16.87
   3   2  -1  243.88   13.46
   3   2   0  635.04   30.64
  -3  -2   0  685.12   33.36
   3   2   0  573.62   30.53
  -3  -2   0  539.96   33.42
   3   2   1  220.73   11.98
   3   2   1  245.78   12.32
  -3  -2  -1  217.10   14.70
   3   2   1  219.04   11.89
   3   2   2 3253.08  158.34
   3   2   2 3307.90  158.14
  -3  -2  -2 3071.11  163.03
   3   2   2 3171.75  158.22
   3   2   3 4607.16  221.54
   3   2   3 4480.88  221.67
   3   2   3 4527.57  221.61
   3   2   4  702.35   35.48
   3   2   4  701.93   35.62
   3   2   4  739.94   36.12
   3   2   5   94.85    5.86
   3   2   5  100.36    5.96
   3   2   5  108.48    6.51
   3   2   5   95.24    5.69
   3   2   6    1.02    0.51
   3   2   7   68.49    4.57
   3   2   7   61.51    5.24
   3   2   8   23.60    3.16
   3   2   9    5.83    1.87
   3   2  10  132.72   10.19
   3   2  11    5.63    2.27
   3   2  11    5.95    1.99
   3   2  12    9.21    2.37
   3   2  12    5.28    1.93
   3   3  -8   32.98    4.29
  -3  -3   8   33.68    3.62
   3   3  -7   24.25    3.80
  -3  -3   7   24.24    3.45
   3   3  -6   23.69    3.61
  -3  -3   6   20.44    4.45
   3   3  -5   35.37    4.04
  -3  -3   5   30.80    5.09
  -3  -3   5   32.33    3.59
  -3  -3   4  128.98    8.56
  -3  -3   4  130.09   11.53
  -3  -3   4  117.16   11.57
   3   3  -4  129.08    8.63
  -3  -3   3  262.52   14.74
  -3  -3   3  229.72   19.64
   3   3  -3  239.18   14.37
  -3  -3   3  293.32   15.51
  -3  -3   3  286.65   17.38
  -3  -3   3  221.49   19.63
  -3  -3   2  584.15   29.41
   3   3  -2  490.66   27.52
  -3  -3   2  502.84   38.78
   3   3  -1  678.78   34.86
  -3  -3   1  740.65   37.48
   3   3  -1  691.98   35.41
   3   3   0   12.44    1.35
   3   3   0   11.54    1.46
  -3  -3   0   14.30    2.64
   3   3   1  103.79    6.02
   3   3   1   99.57    6.08
  -3  -3  -1  106.65   10.13
   3   3   2 2817.62  141.98
   3   3   2 2983.01  142.00
   3   3   3  529.09   26.74
   3   3   4  217.29   11.96
   3   3   4  230.73   12.04
   3   3   5    3.77    0.78
   3   3   5    4.46    0.81
   3   3   6  582.04   29.96
   3   3   7    4.90    1.24
   3   3   7    5.67    1.22
   3   3   7    5.12    1.30
   3   3   8   65.28    5.63
   3   3   9  236.67   15.05
   3   3  10   29.44    3.99
   3   3  11   35.34    4.85
   3   3  11   25.54    3.80
   3   3  12   19.57    3.26
   3   3  12    9.87    2.16
   3   3  13    0.17    0.68
   3   4  -7    0.87    0.79
  -3  -4   7   -0.18    0.78
  -3  -4   7   -0.27    0.98
   3   4  -6   28.41    3.76
  -3  -4   6   34.12    5.30
  -3  -4   6   42.02    4.52
   3   4  -5  135.79    9.42
  -3  -4   5  123.78   12.42
  -3  -4   4    3.47    2.17
  -3  -4   4    0.38    1.63
   3   4  -4    1.61    0.89
   3   4  -4    3.47    1.23
  -3  -4   3   46.47    7.39
   3   4  -3   58.41    4.53
   3   4  -3   58.21    5.12
  -3  -4   3   64.53    7.16
   3   4  -2  448.36   24.25
   3   4  -2  482.06   25.21
  -3  -4   2  416.95   32.52
  -3  -4   2  513.61   28.24
  -3  -4   1    2.46    1.41
  -3  -4   1   -1.25    5.57
   3   4  -1    2.52    0.69
   3   4  -1    3.46    0.96
   3   4  -1    8.65    4.04
   3   4   0  617.50   31.96
   3   4   0  623.82   31.40
   3   4   1   87.15    5.52
   3   4   1   95.81    5.86
  -3  -4  -1   93.20   14.03
   3   4   2  423.70   22.00
   3   4   2  430.48   22.13
  -3  -4  -3   65.87    8.91
   3   4   4  132.86    7.74
   3   4   4  127.35    7.55
  -3  -4  -4  136.39   13.21
   3   4   5  234.06   12.87
   3   4   5  235.27   12.90
  -3  -4  -5  254.74   19.78
   3   4   6   36.96    3.17
   3   4   6   35.31    3.13
   3   4   6   43.78    3.30
   3   4   6   38.91    3.21
   3   4   7    4.37    1.09
   3   4   7    1.89    0.77
   3   4   7    2.95    0.95
   3   4   7    3.37    1.02
   3   4   8   49.98    4.16
   3   4   8   47.97    4.46
   3   4   8   46.03    4.45
   3   4   9  204.64   13.14
   3   4   9  217.17   13.28
   3   4   9  190.85   13.06
   3   4  10   25.91    3.46
   3   4  10   19.98    3.26
   3   4  11   82.22    6.79
   3   4  11   77.94    7.07
   3   4  12    0.22    0.80
   3   4  13    0.47    0.67
   3   5  -7   -0.15    0.56
  -3  -5   6   24.31    4.08
   3   5  -6   27.81    3.24
   3   5  -5   19.42    2.67
  -3  -5   5   16.55    3.98
   3   5  -4   20.49    2.62
  -3  -5   4   20.43    4.87
  -3  -5   3   98.31   10.06
   3   5  -3   99.26    6.83
   3   5  -3  102.89    7.61
  -3  -5   3   94.28   10.11
  -3  -5   2   46.32    7.65
   3   5  -2   41.99    3.56
   3   5  -2   46.00    4.23
  -3  -5   2   36.85    5.75
  -3  -5   1   53.57   10.10
   3   5  -1   55.55    4.08
   3   5  -1   51.44    4.45
  -3  -5   1   50.14    6.41
  -3  -5   0  169.86   23.28
   3   5   0  197.29   11.83
  -3  -5   0  205.07   14.71
   3   5   1  151.37    8.95
   3   5   1  144.86   10.73
   3   5   2  200.77   11.40
  -3  -5  -3  565.04   46.03
   3   5   4    8.86    1.43
   3   5   4    9.33    1.36
  -3  -5  -4    6.03    5.16
   3   5   5 1835.57   92.20
   3   5   5 1929.14   92.31
   3   5   5 1816.90   92.43
   3   5   5 1952.02   92.07
   3   5   5 1750.90   92.26
  -3  -5  -5 2039.82  111.85
   3   5   6   44.54    3.74
   3   5   6   38.58    3.40
   3   5   6   42.09    3.41
   3   5   6   39.70    3.38
   3   5   6   37.81    3.36
   3   5   6   41.50    3.66
   3   5   7  126.51    8.24
   3   5   7  142.56    8.60
   3   5   7  115.90    8.14
   3   5   7  141.75    8.36
   3   5   7  124.23    8.43
   3   5   8  344.37   19.50
   3   5   8  348.94   19.60
   3   5   8  354.66   19.32
   3   5   8  344.51   19.73
   3   5   9   48.59    4.97
   3   5   9   51.43    4.91
   3   5   9   52.14    4.54
   3   5  10   -0.23    1.12
   3   5  10    0.34    0.62
   3   5  10    0.48    0.98
   3   5  11   25.58    3.38
   3   5  11   15.99    2.92
   3   5  12   -0.18    0.81
   3   5  12   -0.65    0.92
   3   5  13   12.02    2.03
   3   6  -6    2.35    0.86
  -3  -6   6    2.27    1.14
   3   6  -5   -0.15    0.56
  -3  -6   5   -0.67    1.43
   3   6  -4    5.15    1.30
  -3  -6   4    8.44    2.87
   3   6  -3   72.69    5.24
  -3  -6   3   48.65    7.65
  -3  -6   3   60.73    8.29
   3   6  -2  110.73    7.38
  -3  -6   2  119.07   11.29
   3   6  -2  111.37    7.99
  -3  -6   2  123.63   11.81
  -3  -6   1   67.31    9.46
   3   6  -1   64.67    4.81
   3   6  -1   64.74    5.27
  -3  -6   1   70.39    8.29
  -3  -6   0  216.74   20.43
   3   6   0  188.74   11.51
  -3  -6   0  195.66   15.27
   3   6   1   70.36    7.54
   3   6   1   89.22    5.98
  -3  -6  -1   81.70    8.28
   3   6   2   23.07    2.45
   3   6   2   19.97    2.11
   3   6   2   19.59    2.67
   3   6   3    0.12    0.50
   3   6   3   -0.11    0.41
   3   6   4 1111.49   51.13
   3   6   4  949.42   50.95
   3   6   4 1002.93   50.33
   3   6   4 1026.97   50.71
   3   6   4  931.62   50.77
   3   6   5   19.51    2.39
   3   6   5   20.23    2.34
   3   6   5   24.13    2.48
   3   6   5   19.85    2.18
   3   6   5   23.87    2.52
   3   6   6   81.20    5.82
   3   6   6   76.19    5.77
   3   6   6   87.54    5.83
   3   6   6   78.71    5.90
   3   6   6   81.55    6.27
   3   6   7  145.73    9.60
   3   6   7  151.41    9.73
   3   6   7  158.31    9.63
   3   6   7  165.39   10.12
   3   6   7  163.83   10.12
   3   6   8  483.55   26.41
   3   6   8  493.50   26.42
   3   6   8  469.95   26.53
   3   6   8  499.12   26.21
   3   6   9   22.30    2.98
   3   6   9   21.51    2.75
   3   6   9   19.18    2.80
   3   6   9   21.62    3.03
   3   6  10  217.37   13.57
   3   6  10  190.34   12.83
   3   6  10  196.91   12.36
   3   6  10  197.99   13.17
   3   6  11    4.65    1.65
   3   6  11    3.45    1.15
   3   6  11    4.94    1.75
   3   6  12    7.69    1.78
   3   6  12    9.22    2.03
   3   6  13    3.05    1.12
   3   7  -5   22.36    2.43
  -3  -7   5   26.36    3.51
   3   7  -4   23.40    2.59
  -3  -7   4   24.04    4.00
  -3  -7   3    3.51    2.04
   3   7  -3    2.25    0.88
  -3  -7   3    5.44    2.35
   3   7  -2   16.89    2.13
  -3  -7   2   10.67    3.74
  -3  -7   2    9.47    3.34
   3   7  -1   14.69    2.28
   3   7  -1   13.96    1.93
  -3  -7   1   11.64    3.70
   3   7   0   68.82    5.36
  -3  -7   0   57.34    7.99
   3   7   1  240.23   13.65
  -3  -7  -1  201.77   17.16
  -3  -7  -2   59.52   16.24
  -3  -7  -2   69.16    8.01
   3   7   2   69.07    5.31
   3   7   3   48.97    4.58
   3   7   3   57.67    4.37
   3   7   4   87.87    6.03
   3   7   4   75.20    5.93
   3   7   4   84.04    5.57
   3   7   4   67.81    5.80
   3   7   4   76.87    5.72
   3   7   5  380.95   19.44
   3   7   5  402.19   19.85
   3   7   5  365.08   19.78
   3   7   5  334.68   19.71
   3   7   5  339.85   19.75
   3   7   5  306.39   20.49
   3   7   6   44.83    4.20
   3   7   6   47.22    4.09
   3   7   6   43.07    3.82
   3   7   6   44.83    4.46
   3   7   6   46.27    3.98
   3   7   7  101.81    6.95
   3   7   7   97.21    7.19
   3   7   7   92.78    6.89
   3   7   7   97.21    6.77
   3   7   7   98.23    7.28
   3   7   8  167.64   11.56
   3   7   8  183.26   11.42
   3   7   8  194.48   12.04
   3   7   8  201.64   12.13
   3   7   8  194.13   11.80
   3   7   9  147.46   10.14
   3   7   9  148.75   10.10
   3   7   9  160.68    9.98
   3   7   9  145.47   10.25
   3   7  10   40.50    4.22
   3   7  10   34.56    3.70
   3   7  10   38.00    4.27
   3   7  11  120.43    8.74
   3   7  11  114.32    7.95
   3   7  11  109.32    8.53
   3   7  12    1.06    0.94
   3   7  12    0.57    0.78
   3   7  13    1.68    0.85
   3   8  -4    6.22    1.16
  -3  -8   4    5.66    1.64
   3   8  -3    0.83    0.59
  -3  -8   3    0.29    1.05
  -3  -8   3    1.55    1.22
   3   8  -2   52.74    4.25
  -3  -8   2   42.33    6.64
  -3  -8   1   13.40    3.92
  -3  -8   0   -0.57    1.04
   3   8   1   44.35    4.14
  -3  -8  -1   36.05    6.38
  -3  -8  -2   85.18   13.87
  -3  -8  -2   88.96    9.85
   3   8   3    4.31    1.31
  -3  -8  -3    4.73    6.41
  -3  -8  -4   15.72   10.86
   3   8   4   23.89    2.92
   3   8   4   25.33    2.94
   3   8   4   23.66    2.71
   3   8   4   12.62    3.30
   3   8   5   61.69    4.75
   3   8   5   46.56    4.53
   3   8   5   48.57    4.45
   3   8   5   48.59    5.50
   3   8   6   30.76    3.22
   3   8   6   26.42    3.09
   3   8   6   35.81    3.32
   3   8   6   30.14    3.39
   3   8   6   28.36    3.75
   3   8   7    0.54    0.98
   3   8   7    1.61    0.82
   3   8   7    1.68    0.87
   3   8   7    2.04    0.99
   3   8   7    2.01    1.10
   3   8   8  154.18    9.88
   3   8   8  133.61    9.64
   3   8   8  150.59    9.58
   3   8   8  152.50   10.13
   3   8   9   32.27    3.60
   3   8   9   28.09    3.23
   3   8   9   31.79    3.70
   3   8  10   69.05    5.69
   3   8  10   77.19    6.37
   3   8  11   22.88    3.09
   3   8  11   18.17    2.42
   3   8  11   17.12    2.71
   3   8  12    3.11    1.17
   3   8  12    4.10    1.29
   3   8  13    3.70    1.00
   3   8  13    3.69    1.03
   3   9  -3    1.51    0.59
  -3  -9   3    0.49    0.70
   3   9  -2    2.37    0.82
  -3  -9   2    1.84    1.57
  -3  -9   1   20.87    4.46
  -3  -9   0   -0.52    1.16
  -3  -9  -1   26.69    5.43
  -3  -9  -2    3.60    2.10
   3   9   2    5.32    1.53
   3   9   3    0.53    0.85
  -3  -9  -3    0.92    3.56
   3   9   3    0.19    0.61
   3   9   4   66.51    5.13
   3   9   4   52.86    4.89
  -3  -9  -4   66.50   13.09
   3   9   4   39.33    5.85
   3   9   5    8.49    1.64
  -3  -9  -5   11.73    7.31
   3   9   5    6.46    1.52
   3   9   5    6.17    2.20
   3   9   6    9.80    1.89
   3   9   6   13.57    2.08
   3   9   6   11.26    2.44
  -3  -9  -6   11.22    7.45
   3   9   7   38.30    3.79
   3   9   7   36.84    3.69
   3   9   7   39.85    4.35
   3   9   8  184.09   11.58
   3   9   8  185.26   11.76
   3   9   8  198.47   12.34
   3   9   9    0.16    0.70
   3   9   9    0.20    0.71
   3   9   9    0.18    0.68
   3   9  10   12.63    1.98
   3   9  10    9.37    1.98
   3   9  11   10.19    2.07
   3   9  11    7.94    1.55
   3   9  11    8.75    1.84
   3   9  12   23.59    2.79
   3   9  12   24.14    2.78
  -3 -10   1    6.07    2.07
  -3 -10   0    2.00    1.54
  -3 -10  -1   31.94    4.87
  -3 -10  -1   19.62    4.35
  -3 -10  -2   18.76    4.09
   3  10   3   38.47    3.53
   3  10   3   15.80    3.79
   3  10   4    9.01    2.69
   3  10   4    8.98    1.70
   3  10   5   37.82    3.57
  -3 -10  -5   27.05    5.16
   3  10   5   27.40    4.14
  -3 -10  -6   28.23    5.30
   3  10   6   27.19    3.75
   3  10   6   27.20    3.03
   3  10   7   63.78    5.21
   3  10   7   63.88    5.78
   3  10   8   27.40    3.13
   3  10   8   30.16    3.19
   3  10   8   34.25    3.74
   3  10   9    0.31    0.57
   3  10   9    0.14    0.64
   3  10   9    0.90    0.74
   3  10  10   15.98    2.16
   3  10  10   18.39    2.53
   3  10  11    6.86    1.50
   3  10  11    6.73    1.27
   3  10  11    8.15    1.63
   3  10  12   -0.11    0.53
   3  10  12   -0.12    0.43
  -3 -11   0    8.68    2.11
  -3 -11  -1   15.81    3.11
  -3 -11  -2    4.31    1.79
  -3 -11  -2    6.19    2.22
   3  11   2    4.19    1.75
  -3 -11  -3    3.58    1.73
   3  11   3    1.00    1.20
  -3 -11  -4    0.38    1.38
   3  11   4    0.71    0.97
  -3 -11  -5    4.26    2.12
   3  11   5    3.93    1.55
   3  11   6   26.44    2.83
  -3 -11  -6   28.37    4.76
   3  11   6   23.34    3.22
   3  11   7   25.18    2.76
   3  11   7   23.79    3.05
   3  11   8    9.69    1.67
   3  11   8    8.02    1.70
   3  11   9    0.51    0.63
   3  11   9    0.45    0.64
   3  11  10   47.52    4.07
   3  11  11    3.77    1.02
   3  11  11    2.39    0.84
  -3 -12  -3   10.03    2.27
  -3 -12  -4    0.26    0.95
   3  12   4   -0.14    0.69
  -3 -12  -5    1.68    1.25
   3  12   5    0.43    0.66
  -3 -12  -6    0.29    1.05
   3  12   6    0.14    0.52
   3  12   7    9.33    1.60
   3  12   8    2.96    0.89
   3  12   9    2.67    0.80
  -4  11   6    0.10    0.39
  -4  11   5    6.81    1.29
  -4  11   5    5.93    1.26
  -4  11   4    0.33    0.71
  -4  11   4    0.28    0.62
  -4  11   3    8.45    2.09
  -4  11   3   12.89    2.04
  -4  11   2   24.16    2.80
  -4  11   1    2.63    0.92
  -4  11   0    5.05    1.13
   4 -10  -8    6.12    1.24
  -4  10   8    5.67    1.03
   4 -10  -7   14.48    2.15
  -4  10   7   17.03    2.02
  -4  10   6    2.59    0.92
  -4  10   6    0.91    0.65
  -4  10   5    0.54    0.90
  -4  10   5    0.33    0.70
  -4  10   4   18.15    2.74
  -4  10   4   13.31    2.79
  -4  10   3    7.51    1.89
  -4  10   2   10.86    2.28
  -4  10   1    4.95    1.55
   4 -10  -1    0.73    0.71
   4 -10   0    5.63    1.53
  -4  10   0   12.67    2.21
  -4  10  -1    7.60    1.71
   4 -10   1    2.71    1.10
  -4  10  -2    1.62    1.03
   4 -10   2    0.79    0.72
   4  -9  -9    3.20    0.98
  -4   9   9    1.88    0.63
   4  -9  -8    2.68    0.96
  -4   9   8    1.74    0.75
   4  -9  -7   88.28    6.81
  -4   9   7   88.81    6.39
  -4   9   7   86.39    6.14
  -4   9   6   19.52    2.62
  -4   9   5   23.26    3.35
  -4   9   5   24.50    3.23
  -4   9   4   47.58    4.91
  -4   9   4   38.81    5.33
  -4   9   3   66.51    6.27
  -4   9   2   35.51    4.39
  -4   9   1   67.11    6.34
  -4   9   0   55.74    5.73
   4  -9   0   79.25    8.72
  -4   9  -1   47.19    5.20
   4  -9   1   74.03    8.14
   4  -9   2   10.46    3.07
   4  -9   3   22.97    2.75
  -4   9  -3   21.69    3.53
   4  -9   4    2.40    1.01
   4  -8  -9   11.67    1.98
  -4   8   9    9.77    1.56
   4  -8  -8    0.37    0.68
  -4   8   8    1.99    0.82
  -4   8   7   24.33    2.93
   4  -8  -7   23.14    3.22
  -4   8   7   28.38    3.22
  -4   8   6  288.72   17.10
  -4   8   5   15.19    2.69
  -4   8   4   48.52    5.23
  -4   8   4   49.30    6.17
  -4   8   3    0.26    1.00
  -4   8   2    7.43    2.04
   4  -8  -1   87.25    9.15
  -4   8   1   47.43    5.45
   4  -8   0   18.89    4.52
   4  -8   1    4.86    2.73
   4  -8   2   42.85    4.66
   4  -8   2   43.14    6.45
   4  -8   3    3.37    1.33
   4  -8   3    2.46    1.83
   4  -8   4    0.17    0.66
   4  -8   4   -0.80    0.86
   4  -8   5    1.42    0.89
   4  -7  -9   14.64    2.35
  -4   7   9   13.28    1.98
   4  -7  -8   43.37    4.54
  -4   7   8   46.69    4.25
  -4   7   7   14.01    2.26
   4  -7  -7   13.81    2.52
  -4   7   7   16.65    2.52
  -4   7   6   21.00    2.97
  -4   7   5   73.13    6.59
  -4   7   4   18.42    3.19
  -4   7   4   11.46    3.14
  -4   7   3    5.98    2.54
  -4   7   3    8.63    2.22
  -4   7   2    8.07    2.14
   4  -7  -2    8.56    2.14
  -4   7   2    6.15    2.56
  -4   7   1   80.19    7.05
  -4   7   1   71.74    8.27
   4  -7  -1   80.19    7.26
   4  -7  -1   76.18    6.97
  -4   7   0   28.71    4.90
   4  -7   0   17.37    3.11
   4  -7   0   30.18    5.18
   4  -7   0   21.10    3.40
   4  -7   1    1.06    0.96
   4  -7   1    1.35    0.98
   4  -7   2   67.98    6.32
   4  -7   2   81.76    9.01
   4  -7   3    0.98    1.10
   4  -7   3    4.04    2.00
   4  -7   4    0.24    0.94
   4  -7   5    1.31    0.93
   4  -7   6    8.12    1.74
  -4   6  10   34.42    3.15
   4  -6  -9    2.71    1.21
  -4   6   9    4.14    1.20
   4  -6  -8   56.37    5.72
   4  -6  -8   65.81    5.94
  -4   6   8   68.51    5.55
  -4   6   7   22.39    2.97
   4  -6  -7   22.47    3.35
  -4   6   7   27.14    3.29
  -4   6   6    0.60    0.78
  -4   6   5  817.25   41.50
  -4   6   5  723.19   41.69
  -4   6   4  298.84   17.23
  -4   6   4  242.80   17.80
  -4   6   3  280.42   16.41
  -4   6   3  224.66   17.46
  -4   6   2   71.21    6.37
  -4   6   2   71.92    7.91
  -4   6   1   42.19    5.89
  -4   6   1   49.41    4.93
   4  -6  -1   46.17    5.00
   4  -6  -1   45.71    4.82
   4  -6   0    5.18    1.64
   4  -6   0    6.89    1.86
   4  -6   0    6.94    2.42
   4  -6   1    2.79    1.32
   4  -6   1    5.52    1.70
   4  -6   1    6.78    2.56
   4  -6   2  291.79   18.20
   4  -6   2  289.83   17.86
   4  -6   2  339.63   21.67
   4  -6   3    0.24    0.96
   4  -6   3   -0.43    1.47
   4  -6   4  296.30   18.33
   4  -6   5   38.56    4.62
   4  -6   6   13.95    2.49
   4  -6   6    6.40    2.14
   4  -6   7    1.75    1.16
   4  -6   7    3.13    1.21
  -4   5  10    0.62    0.52
  -4   5  10    0.37    0.48
  -4   5   9    0.15    0.65
   4  -5  -9    0.48    0.70
  -4   5   9    0.35    0.55
  -4   5   8   24.54    3.28
   4  -5  -8   23.07    3.43
  -4   5   8   22.71    3.07
   4  -5  -8   21.23    3.42
  -4   5   7   26.47    4.03
   4  -5  -7   22.23    3.42
  -4   5   7   30.10    3.45
  -4   5   6   18.75    2.76
   4  -5  -6   16.51    2.80
  -4   5   6   21.60    2.95
  -4   5   6   16.83    2.62
  -4   5   5    2.42    1.16
  -4   5   5    1.84    1.15
  -4   5   4   18.87    2.86
  -4   5   4   18.38    3.34
  -4   5   3    4.46    1.56
  -4   5   3    7.10    2.40
  -4   5   2  193.77   14.84
  -4   5   2  212.21   13.17
  -4   5   1  155.84   10.74
  -4   5   1  154.78   12.60
   4  -5  -1  159.72   10.91
   4  -5  -1  165.24   10.72
   4  -5   0   13.90    2.31
   4  -5   0   16.01    2.54
   4  -5   0   18.83    3.63
   4  -5   1   32.75    3.82
   4  -5   1   36.65    5.34
   4  -5   1   39.21    4.05
   4  -5   2  116.81    8.69
   4  -5   2  115.19    8.47
   4  -5   2  140.39   11.27
   4  -5   3  232.24   13.92
   4  -5   3  201.35   13.53
   4  -5   4   79.48    6.88
   4  -5   5    6.53    2.22
   4  -5   5    8.04    2.07
   4  -5   6    2.15    1.37
   4  -5   6    0.74    1.06
   4  -5   7   17.09    3.22
   4  -5   7   14.48    2.56
   4  -5   8   11.10    2.36
  -4   4  10    2.44    0.81
  -4   4  10    1.73    0.80
  -4   4   9    3.04    1.06
   4  -4  -9    1.79    1.09
  -4   4   9    3.42    1.17
  -4   4   8   20.03    2.98
   4  -4  -8   16.36    3.26
   4  -4  -8   17.14    3.09
  -4   4   8   20.24    2.92
  -4   4   7   14.54    3.09
   4  -4  -7   13.51    2.97
   4  -4  -7   13.44    2.67
  -4   4   7   17.33    2.59
  -4   4   6    0.56    0.79
   4  -4  -6    0.90    0.82
  -4   4   6    0.37    0.58
  -4   4   6    0.37    0.59
  -4   4   5    1.92    0.93
  -4   4   5    2.72    1.17
  -4   4   4  132.89    9.06
  -4   4   4  125.19    9.40
  -4   4   3  570.80   30.25
  -4   4   3  538.20   31.45
  -4   4   2   -0.35    0.64
  -4   4   2    0.31    1.24
  -4   4   1   14.08    2.14
   4  -4  -1    8.69    1.70
  -4   4   1   10.40    2.77
  -4   4   0  729.02   38.35
   4  -4   0  647.17   36.00
   4  -4   0  649.20   35.87
   4  -4   1  290.13   17.51
   4  -4   1  304.69   17.53
   4  -4   2   78.15    6.21
   4  -4   2   75.11    6.04
   4  -4   3  112.07    7.87
   4  -4   3  102.17    7.68
   4  -4   4   19.86    3.17
   4  -4   4   21.24    3.16
   4  -4   4   14.91    2.57
   4  -4   5  254.37   16.78
   4  -4   5  261.11   16.51
   4  -4   5  254.70   16.05
   4  -4   6   16.04    3.26
   4  -4   6   14.36    2.87
   4  -4   6    2.96    1.57
   4  -4   7   30.92    4.55
   4  -4   7   30.87    3.91
   4  -4   8   57.15    6.06
   4  -4   9    1.45    1.54
   4  -4   9    3.45    1.52
  -4   3  10    2.63    0.81
  -4   3   9    2.06    0.92
   4  -3  -9    3.35    1.41
  -4   3   9    2.82    1.07
   4  -3  -8   14.93    3.28
  -4   3   8   10.43    2.20
  -4   3   8   13.62    2.44
  -4   3   7   51.68    5.68
   4  -3  -7   54.43    6.59
   4  -3  -7   53.28    5.67
  -4   3   7   57.11    5.23
   4  -3  -6    0.22    0.76
  -4   3   6    0.53    0.65
  -4   3   6    0.37    0.47
  -4   3   5  329.01   18.55
   4  -3  -5  297.59   18.59
  -4   3   5  350.91   18.63
  -4   3   5  323.74   18.59
  -4   3   4  155.45   10.01
  -4   3   4  155.98   10.17
  -4   3   3    7.44    1.56
  -4   3   3   17.63    2.63
  -4   3   2   20.19    4.91
  -4   3   2   17.60    3.04
  -4   3   1   75.27   10.44
  -4   3   1   92.52    7.84
   4  -3  -1   94.65    6.20
  -4   3   0 1547.86   77.28
   4  -3   0 1480.47   75.13
   4  -3   1 1123.66   56.88
   4  -3   2 2764.17  129.78
   4  -3   2 2478.43  129.78
   4  -3   3  132.54   10.28
   4  -3   3  146.06    9.42
   4  -3   3  142.32    9.08
   4  -3   3  132.42    8.96
   4  -3   4   30.81    4.38
   4  -3   4   29.36    3.54
   4  -3   4   21.77    3.45
   4  -3   4   26.34    2.99
   4  -3   4   28.93    3.69
   4  -3   4   21.93    2.94
   4  -3   5    1.28    1.19
   4  -3   5    3.45    1.57
   4  -3   5    3.76    1.51
   4  -3   5    1.17    1.56
   4  -3   5    1.82    1.14
   4  -3   5    2.92    1.87
   4  -3   5    2.34    0.89
   4  -3   6   82.32    7.41
   4  -3   6   91.26    8.43
   4  -3   6   55.51    6.27
   4  -3   6   85.80    7.25
   4  -3   6   62.19    7.11
   4  -3   6   76.55    6.60
   4  -3   6   79.95    5.74
   4  -3   7    0.31    1.33
   4  -3   7    0.38    1.68
   4  -3   7    0.28    1.17
   4  -3   7    1.08    1.61
   4  -3   7    0.46    0.79
   4  -3   8  145.41   11.31
   4  -3   8   91.25    8.70
   4  -3   8  103.05    9.88
   4  -3   8  159.75   10.93
   4  -3   9    0.27    1.15
   4  -3   9   -1.00    1.71
   4  -3   9   -0.24    1.05
   4  -3  10    9.76    2.03
   4  -3  10   11.73    2.70
  -4   2   9    7.14    1.51
   4  -2  -9    5.05    1.72
  -4   2   8   11.41    2.19
   4  -2  -8   13.85    3.40
  -4   2   8   10.34    2.16
  -4   2   7   26.71    3.74
   4  -2  -7   27.04    4.62
   4  -2  -7   27.60    4.01
  -4   2   7   24.04    3.31
  -4   2   6   40.65    5.43
   4  -2  -6   43.52    4.75
   4  -2  -6   44.43    5.56
  -4   2   6   43.76    4.36
  -4   2   5    3.96    1.97
   4  -2  -5    2.79    1.13
  -4   2   5    3.18    1.07
  -4   2   4   84.20    5.92
   4  -2  -4   67.16    5.74
  -4   2   4   79.10    8.67
  -4   2   4   85.45    6.03
  -4   2   3  140.06    8.62
  -4   2   3  144.10   11.66
  -4   2   3  137.91    8.73
   4  -2  -3  120.70    8.35
  -4   2   2   22.51    2.86
  -4   2   1  881.64   46.63
  -4   2   1  923.55   53.48
  -4   2   0  239.55   14.61
   4  -2   0  235.79   13.06
   4  -2   1   24.24    2.40
   4  -2   1   19.23    2.14
   4  -2   2   75.54    5.27
   4  -2   2   70.08    5.13
   4  -2   3    6.46    1.47
   4  -2   3    5.06    1.18
   4  -2   4 3310.48  153.63
   4  -2   4 3137.11  152.65
   4  -2   4 3227.65  152.39
   4  -2   4 3093.61  151.35
   4  -2   4 2919.69  150.69
   4  -2   4 2971.75  151.66
   4  -2   5  206.24   13.58
   4  -2   5  192.35   12.23
   4  -2   5  177.41   12.48
   4  -2   5  189.80   12.49
   4  -2   5  178.13   11.63
   4  -2   5  178.56   10.72
   4  -2   6    0.52    1.05
   4  -2   6    0.71    0.97
   4  -2   6   -0.29    1.44
   4  -2   6    1.21    1.04
   4  -2   6    0.39    0.53
   4  -2   6    0.95    1.63
   4  -2   7  118.93    9.60
   4  -2   7  127.23   10.49
   4  -2   7  112.19    9.17
   4  -2   7  113.15    9.89
   4  -2   7  116.50    8.72
   4  -2   7  111.71    7.78
   4  -2   8   17.26    3.45
   4  -2   8   15.29    3.62
   4  -2   8   12.88    3.17
   4  -2   9   12.55    3.24
   4  -2   9   12.68    3.11
   4  -2   9   11.33    2.85
   4  -2  10   16.07    2.81
   4  -2  10   15.12    3.25
   4  -2  10    7.48    2.33
   4  -2  11   14.19    2.60
   4  -2  11   24.68    3.43
  -4   1   9   23.48    2.67
   4  -1  -9   23.47    3.67
  -4   1   8    4.55    1.36
   4  -1  -8    4.40    2.07
  -4   1   7   31.13    5.21
  -4   1   7   34.89    4.11
   4  -1  -7   45.09    5.86
  -4   1   6   26.64    3.88
  -4   1   6   28.72    5.82
   4  -1  -6   24.23    3.91
  -4   1   6   26.25    3.63
  -4   1   5    3.63    1.85
  -4   1   5   -0.76    3.24
   4  -1  -5    1.38    1.07
   4  -1  -5    1.58    0.98
  -4   1   5    0.84    0.72
   4  -1  -4  282.24   17.45
  -4   1   4  322.53   21.38
  -4   1   4  323.07   17.22
  -4   1   3  676.08   33.86
  -4   1   3  640.66   33.64
   4  -1  -3  631.91   34.00
  -4   1   3  696.41   38.84
  -4   1   2  211.00   12.02
  -4   1   1   97.56    6.59
  -4   1   1   95.51   10.88
  -4   1   0    2.00    2.98
   4  -1   0    4.63    0.86
  -4   1   0    2.30    1.03
   4  -1   1   39.74    3.02
   4  -1   1   36.26    3.31
   4  -1   1   40.99    3.13
   4  -1   2 3810.74  185.45
   4  -1   2 3747.11  185.16
   4  -1   3 1141.34   57.05
   4  -1   3 1121.41   56.69
   4  -1   4    4.98    1.33
   4  -1   4    5.90    1.17
   4  -1   5    1.39    1.00
   4  -1   5    2.14    1.65
   4  -1   5    2.37    1.10
   4  -1   5    2.29    0.80
   4  -1   5    2.68    1.02
   4  -1   6   11.50    2.43
   4  -1   6   13.95    2.46
   4  -1   6   14.81    2.72
   4  -1   6   13.35    2.15
   4  -1   6   11.16    2.74
   4  -1   6    8.72    1.57
   4  -1   7   -0.26    1.18
   4  -1   7    0.65    1.67
   4  -1   7    0.73    0.94
   4  -1   7   -0.29    1.24
   4  -1   7    0.14    0.53
   4  -1   8   83.29    8.14
   4  -1   8   71.23    6.89
   4  -1   8   70.70    7.40
   4  -1   8   69.03    5.57
   4  -1   8   78.19    7.33
   4  -1   9    0.30    1.30
   4  -1   9   -1.05    1.62
   4  -1   9   -0.38    1.71
   4  -1  10   29.58    4.02
   4  -1  10   31.56    4.74
   4  -1  10   19.94    3.81
   4  -1  11    1.61    1.42
   4  -1  11    0.24    0.96
   4   0  -9   48.00    4.96
  -4   0   9   39.85    3.91
  -4   0   8    5.05    1.31
   4   0  -8    4.93    1.94
  -4   0   7    4.66    1.45
  -4   0   7    2.75    1.90
   4   0  -7    6.26    2.15
  -4   0   6   22.01    3.00
  -4   0   6   27.61    3.57
  -4   0   6   21.18    4.95
   4   0  -6   23.41    3.65
  -4   0   6   24.37    3.34
  -4   0   5  267.72   17.45
   4   0  -5  278.63   16.74
  -4   0   5  248.76   22.24
  -4   0   5  283.13   17.73
  -4   0   4    7.95    2.73
   4   0  -4    6.28    1.46
   4   0  -4    6.98    1.60
  -4   0   3  185.38   10.62
   4   0  -3  176.36   10.94
   4   0  -3  194.27   11.36
  -4   0   3  192.16   14.93
  -4   0   3  226.13   12.06
   4   0  -3  149.80   10.46
  -4   0   2   31.01    2.56
   4   0  -2   25.68    2.70
  -4   0   2   29.34    4.76
   4   0  -1    0.31    0.42
   4   0   0  272.43   15.01
  -4   0   0  307.77   22.40
   4   0   1  392.84   20.22
   4   0   1  380.42   20.01
   4   0   2    6.11    0.93
   4   0   2    7.38    1.36
   4   0   2    5.67    0.99
   4   0   3   75.32    5.20
   4   0   3   70.47    4.83
   4   0   4  503.22   26.64
   4   0   5   18.17    2.41
   4   0   5   16.45    1.85
   4   0   6    0.41    0.83
   4   0   6    1.73    1.46
   4   0   6    2.05    1.13
   4   0   6    1.77    0.91
   4   0   6    2.39    0.90
   4   0   7  179.40   12.44
   4   0   7  168.58   11.14
   4   0   7  163.39   11.31
   4   0   7  147.51    9.66
   4   0   8   12.23    1.93
   4   0   8   15.35    3.00
   4   0   8   10.67    2.94
   4   0   8   15.44    2.82
   4   0   9    0.29    1.25
   4   0   9    0.75    1.61
   4   0   9   -0.33    1.54
   4   0  10    9.17    2.94
   4   0  10    8.19    2.66
   4   0  11    0.31    1.47
   4   0  11    0.27    1.11
   4   0  12    6.09    1.87
   4   0  12    3.80    1.37
   4   0  12    4.77    1.78
   4   1  -9    1.35    0.79
  -4  -1   9    2.81    0.93
   4   1  -8    3.70    1.61
  -4  -1   8    5.94    1.66
  -4  -1   7   25.35    4.27
   4   1  -7   17.02    3.24
   4   1  -6  181.63   12.98
  -4  -1   6  208.56   16.20
  -4  -1   5    4.54    3.65
   4   1  -5    4.38    1.38
  -4  -1   5    4.44    1.66
  -4  -1   5    4.86    1.28
  -4  -1   4  227.01   15.72
  -4  -1   4  243.76   13.82
   4   1  -4  229.39   13.89
   4   1  -3  111.48    7.79
  -4  -1   3  124.47   10.93
   4   1  -2  190.15   11.37
  -4  -1   2  191.68   14.80
   4   1  -1  102.41    6.77
  -4  -1   1  105.16    9.16
  -4  -1   0 1388.14   75.85
   4   1   0 1416.04   70.27
   4   1   1 2509.79  122.90
  -4  -1  -1 2645.39  132.32
   4   1   1 2480.95  123.17
   4   1   2   60.57    4.04
   4   1   2   61.92    4.09
   4   1   3  448.43   22.83
   4   1   3  450.46   23.33
   4   1   3  430.78   22.41
   4   1   4  538.49   27.90
   4   1   4  549.51   28.38
   4   1   5  152.85    8.83
   4   1   5  143.19    9.26
   4   1   6   13.10    2.58
   4   1   6   11.94    2.11
   4   1   6   12.95    2.26
   4   1   7  142.73   10.27
   4   1   7  171.31   11.50
   4   1   7  146.15   10.05
   4   1   7  143.62    8.96
   4   1   8   63.55    6.53
   4   1   8   48.04    4.15
   4   1   9   12.16    3.23
   4   1   9   10.93    1.83
   4   1  10    2.21    2.07
   4   1  11   10.92    3.04
   4   1  11    7.84    2.34
   4   1  12    0.49    1.18
   4   1  12    0.22    0.84
   4   2  -8   17.95    2.79
  -4  -2   8   18.21    2.56
   4   2  -7   40.83    4.71
   4   2  -6   58.51    5.73
  -4  -2   6   59.09    7.25
   4   2  -5  147.87    9.92
  -4  -2   5  121.97   12.89
   4   2  -4  421.23   22.71
  -4  -2   4  357.97   29.26
  -4  -2   4  413.98   23.68
  -4  -2   3   24.91    3.90
   4   2  -3   25.64    2.72
  -4  -2   3   31.49    4.13
   4   2  -2  144.69    9.32
  -4  -2   2  155.15   12.50
   4   2  -2  169.80    9.80
   4   2  -1  642.88   33.57
  -4  -2   1  688.44   37.74
   4   2   0 1433.21   68.00
  -4  -2   0 1403.62   71.10
   4   2   0 1295.19   67.79
   4   2   1  587.64   30.19
   4   2   1  646.03   30.34
  -4  -2  -1  619.97   34.98
   4   2   1  555.67   29.85
   4   2   2 3105.79  154.91
   4   2   2 3217.56  154.95
  -4  -2  -2 3179.78  162.74
   4   2   3 1148.58   58.09
   4   2   3 1202.36   58.34
   4   2   4 1171.72   60.78
   4   2   4 1257.69   61.23
   4   2   4 1304.78   61.78
   4   2   5  238.80   13.06
   4   2   5  233.31   13.50
   4   2   6    9.47    1.75
   4   2   7    3.65    0.92
   4   2   8    2.33    1.59
   4   2   9    5.62    2.22
   4   2  10   13.70    3.26
   4   2  10    7.99    2.17
   4   2  11    5.67    1.85
   4   2  11    8.35    2.63
   4   2  12    3.98    1.87
   4   2  12    0.71    0.96
   4   3  -8    7.43    1.47
  -4  -3   8    6.96    1.38
   4   3  -7    0.19    0.54
  -4  -3   7    0.79    0.96
   4   3  -6   10.31    2.05
  -4  -3   6    8.79    2.89
   4   3  -5  179.32   11.26
  -4  -3   5  149.34   13.55
  -4  -3   4   25.49    5.27
   4   3  -4   25.87    3.02
  -4  -3   4   20.44    5.26
   4   3  -4   28.24    3.45
  -4  -3   3    8.99    4.44
  -4  -3   3    6.03    4.25
   4   3  -3    9.28    1.59
  -4  -3   3    9.77    2.18
  -4  -3   3    8.22    2.47
  -4  -3   2    8.26    2.24
  -4  -3   2    6.80    6.77
   4   3  -2    7.96    1.55
   4   3  -2    4.48    1.00
  -4  -3   2    5.00    1.75
  -4  -3   1  416.33   25.70
   4   3  -1  426.17   23.21
   4   3  -1  427.28   22.73
  -4  -3   1  486.13   25.54
   4   3   0  158.38    9.41
   4   3   0  161.58    9.63
   4   3   1  174.17    9.83
   4   3   1  172.09    9.78
  -4  -3  -1  176.59   14.07
   4   3   2  912.07   45.92
   4   3   2  929.87   46.11
   4   3   3   37.88    2.95
   4   3   3   42.23    3.12
   4   3   4 1223.35   61.81
   4   3   4 1258.41   61.67
   4   3   5 1083.71   52.87
   4   3   5 1030.98   52.55
   4   3   6  265.80   14.68
   4   3  10   84.75    7.36
   4   3  11  188.11   12.81
   4   3  12    3.95    1.52
   4   3  13    2.99    1.20
   4   4  -7    7.86    1.48
  -4  -4   7    8.30    1.59
   4   4  -6    3.55    1.17
  -4  -4   6    4.59    1.53
  -4  -4   6    3.77    1.88
  -4  -4   5   17.52    3.49
   4   4  -5   15.98    2.41
  -4  -4   5   10.83    3.52
   4   4  -4   54.48    4.71
  -4  -4   4   50.92    6.79
  -4  -4   3  230.42   19.78
   4   4  -3  219.74   13.87
   4   4  -3  261.00   15.13
  -4  -4   2    1.01    4.52
   4   4  -2    2.00    0.71
   4   4  -2    1.41    0.85
  -4  -4   2    1.07    1.59
  -4  -4   1   16.61   10.36
   4   4  -1   10.72    1.80
  -4  -4   1   12.82    2.83
   4   4   0  108.73    6.94
   4   4   0  109.64    7.36
  -4  -4   0  132.35    9.60
   4   4   0  144.52   11.09
   4   4   1   11.87    1.56
   4   4   1    9.79    1.37
   4   4   2   18.53    1.91
   4   4   2   17.14    1.86
   4   4   3   31.74    2.77
   4   4   3   38.00    2.89
   4   4   4  336.04   18.00
  -4  -4  -4  336.37   24.51
   4   4   5  428.08   22.13
   4   4   5  412.48   22.04
  -4  -4  -5  462.50   29.88
   4   4   6    3.52    0.88
   4   4   6    4.01    0.92
   4   4   6    5.34    1.15
   4   4   6    3.94    0.91
  -4  -4  -6    4.60    2.93
   4   4   7   59.04    4.49
   4   4  10   79.64    6.96
   4   4  11   -0.48    1.02
   4   4  12   51.71    5.07
   4   4  13    2.93    1.26
   4   5  -6   19.63    2.31
  -4  -5   6   22.35    3.40
   4   5  -5    9.24    1.67
  -4  -5   5    8.39    2.80
   4   5  -4   24.77    2.83
   4   5  -3   14.21    2.05
  -4  -5   3   10.67    3.42
  -4  -5   2    2.23    3.18
   4   5  -2    0.89    0.62
  -4  -5   2    0.45    1.41
   4   5  -2    1.68    0.93
   4   5  -1    1.09    3.71
  -4  -5   1    1.18    1.24
  -4  -5   1   -1.17    4.77
   4   5  -1    2.73    1.04
   4   5   0   24.94    5.15
   4   5   0   23.92    2.66
  -4  -5   0   27.36    4.33
   4   5   1  123.43    7.71
   4   5   1  121.29    7.98
  -4  -5  -1  151.83   10.76
   4   5   1  140.87   10.09
   4   5   2  125.29    8.70
   4   5   2  129.69    8.13
   4   5   2  144.29    8.42
  -4  -5  -2  131.82   19.59
   4   5   3  574.46   28.00
   4   5   3  515.62   27.74
   4   5   3  513.02   28.87
   4   5   3  561.12   31.14
  -4  -5  -3  456.96   39.62
   4   5   4   26.10    2.68
   4   5   4   35.36    3.14
   4   5   4   34.20    3.13
   4   5   4   30.83    3.06
   4   5   4   29.86    3.59
   4   5   5   50.83    3.77
   4   5   5   40.38    3.61
   4   5   5   45.21    3.62
   4   5   5   42.99    3.42
   4   5   5   38.08    3.44
   4   5   5   39.06    3.78
   4   5   5   43.56    3.54
  -4  -5  -5   41.55    9.14
   4   5   6  100.28    6.76
   4   5   6   78.84    6.01
   4   5   6  100.62    6.25
   4   5   6   91.30    6.23
   4   5   6   99.73    6.31
   4   5   6   91.96    6.23
  -4  -5  -6   85.40   13.41
   4   5   7  177.94   11.39
   4   5   7  202.32   11.50
   4   5   7  189.64   11.50
   4   5   7  216.93   12.16
   4   5   8  197.69   12.37
   4   5   8  215.31   12.32
   4   5   9    0.15    0.59
   4   5  10   65.62    6.09
   4   5  10   68.17    6.14
   4   5  11    0.92    1.15
   4   5  12   61.51    5.59
   4   5  13   24.52    2.86
   4   6  -5    2.85    0.85
  -4  -6   5    1.96    1.25
   4   6  -4    8.23    1.51
  -4  -6   4    9.96    3.09
   4   6  -3    6.91    1.39
  -4  -6   3    5.12    2.65
   4   6  -2    1.06    0.64
  -4  -6   2   -0.52    1.34
  -4  -6   1   92.29   12.28
   4   6  -1   74.27    5.97
  -4  -6   1   71.91    8.89
   4   6   0   89.19    6.55
  -4  -6   0   97.36    9.82
   4   6   0  106.09   11.95
  -4  -6  -1   56.57   17.68
   4   6   1   61.90    4.90
  -4  -6  -1   60.14    7.07
   4   6   1   65.15    6.80
   4   6   2  278.68   15.57
  -4  -6  -2  279.08   18.56
   4   6   2  267.74   16.31
   4   6   3    3.79    1.12
   4   6   4   64.89    4.98
   4   6   4   56.69    4.50
   4   6   4   57.11    4.83
   4   6   4   56.00    5.72
   4   6   4   53.44    4.45
   4   6   5  524.04   30.13
   4   6   5  650.43   30.68
   4   6   5  564.86   30.37
   4   6   5  586.37   30.02
   4   6   5  577.78   31.03
   4   6   5  573.73   30.34
  -4  -6  -5  692.49   59.53
   4   6   6  123.16    8.29
   4   6   6  139.56    8.44
   4   6   6  131.29    8.17
   4   6   6  127.15    8.61
   4   6   6  128.27    8.41
   4   6   7    0.28    0.57
   4   6   7    0.85    0.98
   4   6   7    0.14    0.52
   4   6   7    0.39    0.63
   4   6   8  412.07   23.05
   4   6   8  445.37   23.56
   4   6   8  401.17   23.04
   4   6   8  429.08   22.96
   4   6   9    3.68    1.28
   4   6   9    3.42    1.21
   4   6  10  153.37    9.90
   4   6  10  146.15   10.43
   4   6  11   45.61    4.78
   4   6  11   47.27    4.86
   4   6  12    0.35    0.72
   4   6  12    0.78    0.90
   4   6  13   -0.14    0.67
   4   7  -4    0.20    0.37
  -4  -7   4    0.28    0.94
   4   7  -3    6.17    1.25
  -4  -7   3    6.28    2.39
  -4  -7   3    7.30    2.58
   4   7  -2    2.08    0.81
  -4  -7   2    2.16    1.84
  -4  -7   2    2.58    2.30
  -4  -7   1   10.08    3.56
   4   7   0  150.12    9.70
  -4  -7   0  135.05   13.28
   4   7   1   81.59    6.06
  -4  -7  -1   67.04    8.66
   4   7   2   53.71    4.53
   4   7   2   54.49    5.35
  -4  -7  -2   42.58    6.42
   4   7   3   74.63    6.03
   4   7   3   84.03    5.83
   4   7   4  128.45    8.07
   4   7   4  105.43    7.52
   4   7   4  118.95    7.32
   4   7   4  107.99    7.88
   4   7   4   89.69    7.00
   4   7   4  114.25    7.56
   4   7   5   19.40    2.45
   4   7   5   11.13    1.94
   4   7   5   15.76    2.04
   4   7   5   14.08    2.22
   4   7   5   13.31    2.15
   4   7   6   57.51    4.73
   4   7   6   54.18    4.73
   4   7   6   55.29    4.69
   4   7   6   53.73    4.44
   4   7   6   56.85    4.85
   4   7   7   15.56    2.22
   4   7   7   11.75    2.24
   4   7   7   11.62    1.87
   4   7   7   10.87    1.92
   4   7   8   36.66    3.74
   4   7   8   37.74    4.07
   4   7   8   33.81    3.70
   4   7   8   37.16    3.62
   4   7   9   64.78    5.48
   4   7   9   62.71    5.17
   4   7   9   54.73    5.21
   4   7   9   59.23    5.30
   4   7  10   11.04    1.96
   4   7  10    7.72    1.87
   4   7  11  173.46   10.80
   4   7  11  178.87   11.60
   4   7  11  159.90   11.22
   4   7  12   23.41    2.94
   4   7  12   17.78    2.61
   4   7  13    7.96    1.44
   4   7  13    8.55    1.55
  -4  -8   3    0.65    1.02
  -4  -8   3    1.72    1.14
  -4  -8   2    4.50    2.25
  -4  -8   1    6.99    2.79
  -4  -8   0   -0.57    1.80
  -4  -8  -1    6.69    2.98
  -4  -8  -2    0.52    1.35
  -4  -8  -3  317.50   39.06
   4   8   3  424.54   23.27
   4   8   4    0.36    0.80
   4   8   4    0.19    0.66
   4   8   4    0.16    0.64
   4   8   5   10.51    1.93
   4   8   5    5.72    1.46
   4   8   5    7.68    1.53
   4   8   5    9.93    1.90
   4   8   5    8.38    1.75
   4   8   6    3.94    1.24
   4   8   6    3.28    1.26
   4   8   6    4.62    1.23
   4   8   6    2.58    1.03
   4   8   7   15.14    2.41
   4   8   7   11.55    1.97
   4   8   7   13.57    2.21
   4   8   7   13.53    2.22
   4   8   8    2.58    1.23
   4   8   8    3.60    1.16
   4   8   8    3.18    1.21
   4   8   9   27.78    3.34
   4   8   9   28.98    3.50
   4   8   9   25.50    3.07
   4   8   9   25.41    3.23
   4   8  10  162.02   10.07
   4   8  10  146.47   10.27
   4   8  11   11.92    2.28
   4   8  11    6.66    1.55
   4   8  11    9.56    1.96
   4   8  12    0.82    0.79
   4   8  12    0.48    0.80
   4   8  13    0.66    0.60
  -4  -9   2   13.38    2.84
  -4  -9   1    0.41    1.31
  -4  -9   0    1.47    1.90
  -4  -9  -1    0.52    1.51
   4   9   2    9.62    2.00
  -4  -9  -2    7.78    3.01
   4   9   3   11.05    2.12
   4   9   4   51.11    4.72
   4   9   5   91.31    6.84
   4   9   6   23.45    2.89
   4   9   6   18.44    2.65
   4   9   6   23.20    2.73
   4   9   7   37.77    3.66
   4   9   7   34.36    3.70
   4   9   8    3.14    1.15
   4   9   8    1.94    0.99
   4   9   9    4.69    1.47
   4   9   9    6.50    1.52
   4   9   9    4.34    1.32
   4   9  10   20.96    2.82
   4   9  10   21.03    2.58
   4   9  10   18.83    2.68
   4   9  11   -0.27    0.63
   4   9  11    0.66    0.76
   4   9  12    2.91    1.05
   4   9  12    2.31    0.92
  -4 -10   1    0.78    1.00
  -4 -10   0   11.16    2.82
   4  10   1   77.84    5.60
  -4 -10  -1   64.32    7.73
   4  10   2   13.06    2.09
  -4 -10  -2    9.15    2.86
   4  10   3    1.58    0.98
   4  10   4  167.05   10.56
   4  10   5    0.94    0.78
  -4 -10  -6   14.78    4.18
   4  10   6   12.80    2.12
   4  10   7   19.64    2.56
   4  10   8  127.36    8.77
   4  10   8  136.05    8.67
   4  10   9   23.05    2.91
   4  10   9   22.95    2.89
   4  10   9   27.64    2.90
   4  10  10    4.38    1.21
   4  10  10    2.09    0.87
   4  10  10    3.22    1.11
   4  10  11   20.84    2.32
   4  10  11   20.08    2.48
   4  10  12    4.20    1.08
  -4 -11  -1    1.04    0.88
  -4 -11  -2    0.56    1.13
   4  11   3    0.34    0.56
  -4 -11  -3    0.34    0.97
   4  11   4    2.95    0.98
  -4 -11  -4    1.85    1.65
   4  11   5    2.44    0.87
  -4 -11  -5    3.80    1.90
   4  11   6    3.70    1.05
  -4 -11  -6    1.95    1.74
   4  11   7    7.44    1.50
   4  11   8    0.27    0.55
   4  11   9    5.57    1.26
   4  11  10   51.28    3.93
   4  11  11    0.80    0.64
   4  11  11    0.42    0.43
  -4 -12  -3    4.06    1.35
  -4 -12  -4    1.64    1.17
  -4 -12  -5    0.26    0.81
  -4 -12  -6    0.26    0.83
   4  12   7   19.45    2.09
   4  12   8    0.97    0.54
   4  12   9    1.78    0.63
  -5  11   3    2.07    0.75
  -5  11   2    0.41    0.46
  -5  10   6   31.55    2.78
  -5  10   6   31.38    2.85
  -5  10   5    6.33    1.31
  -5  10   4   39.86    3.77
  -5  10   3    8.11    1.74
  -5  10   2    2.63    1.06
  -5  10   1   -0.17    0.66
   5 -10   0    1.48    0.84
  -5  10   0    3.99    1.21
   5 -10   1    2.53    0.97
  -5  10  -1    7.83    1.63
  -5   9   7   17.40    2.01
   5  -9  -7   19.68    2.44
  -5   9   7   18.87    2.11
  -5   9   6    8.81    1.57
  -5   9   6    6.52    1.40
  -5   9   5   16.59    2.41
  -5   9   4    5.64    1.55
  -5   9   3    1.29    1.00
  -5   9   2    7.79    1.98
  -5   9   1   49.18    4.99
   5  -9   0   -0.20    0.78
  -5   9   0    1.56    0.95
   5  -9   1   25.09    3.44
  -5   9  -1   67.76    5.54
   5  -9   2    1.74    1.00
   5  -9   3   14.71    2.14
   5  -8  -8   26.01    3.15
   5  -8  -8   23.05    2.71
  -5   8   8   19.16    2.21
   5  -8  -7    0.18    0.60
  -5   8   7    0.27    0.49
  -5   8   7    0.26    0.53
  -5   8   6   90.07    6.52
   5  -8  -6   83.64    6.76
  -5   8   6   83.08    6.48
  -5   8   5    6.27    1.66
  -5   8   4   88.06    7.28
  -5   8   3   34.02    4.20
  -5   8   2    7.82    2.14
   5  -8  -1    0.22    0.75
  -5   8   1    0.24    0.88
   5  -8   0   -0.23    0.88
  -5   8   0   -0.25    0.95
   5  -8   1   18.85    3.09
  -5   8  -1   22.94    3.52
  -5   8  -2   49.89    5.68
   5  -8   2   35.63    4.24
   5  -8   3   -0.20    0.77
   5  -8   3    1.00    0.89
   5  -8   4   52.51    4.25
   5  -8   4   17.42    2.60
   5  -8   5    0.69    0.73
   5  -7  -8   32.18    3.48
   5  -7  -8   30.65    3.36
  -5   7   8   21.32    2.60
   5  -7  -7    4.01    1.33
  -5   7   7    5.10    1.28
  -5   7   6   38.23    3.93
   5  -7  -6   31.76    3.93
  -5   7   6   36.59    3.90
  -5   7   5    3.40    1.43
  -5   7   4   75.90    6.79
  -5   7   3    3.26    1.52
  -5   7   2   16.15    2.93
  -5   7   2   16.92    3.84
  -5   7   1   34.94    4.33
   5  -7  -1   37.85    4.55
  -5   7   1   33.57    5.45
   5  -7  -1   40.45    4.34
  -5   7   0    0.24    0.82
   5  -7   0   -0.26    0.59
  -5   7   0    2.08    1.61
  -5   7  -1    1.30    1.06
   5  -7   2   19.06    4.34
   5  -7   3  157.25   11.07
   5  -7   4    0.62    0.96
   5  -7   4    0.69    1.06
   5  -7   5   20.63    3.02
   5  -7   6    4.20    1.31
   5  -6  -9    5.11    1.23
  -5   6   9    4.63    1.07
   5  -6  -8    1.11    0.75
   5  -6  -8    0.79    0.77
  -5   6   8    1.20    0.75
   5  -6  -7   55.67    5.30
  -5   6   7   50.25    4.61
   5  -6  -6    3.23    1.34
  -5   6   6    5.85    1.52
  -5   6   6    2.50    1.22
  -5   6   5   83.81    6.77
   5  -6  -5   75.09    6.74
  -5   6   4   29.14    3.74
  -5   6   4   21.29    3.70
  -5   6   3  408.30   22.98
  -5   6   3  360.44   24.16
  -5   6   2   80.70    6.92
  -5   6   2   70.98    8.08
  -5   6   1   28.65    3.78
  -5   6   1   25.79    4.72
   5  -6  -1   35.06    4.11
  -5   6   0   45.14    6.24
   5  -6   0   54.09    5.42
  -5   6   0   55.61    5.34
  -5   6  -1    0.37    1.06
  -5   6  -1   -0.24    0.87
   5  -6   1    0.24    0.70
   5  -6   1    0.93    1.47
   5  -6   2   -0.25    0.84
   5  -6   2   -0.47    1.34
   5  -6   3    6.56    1.95
   5  -6   4   66.81    6.20
   5  -6   4   56.60    5.62
   5  -6   5   45.50    4.97
   5  -6   6    0.21    0.95
   5  -6   7    0.48    0.77
  -5   5   9    0.33    0.43
   5  -5  -9   -0.14    0.51
  -5   5   8   15.16    2.34
   5  -5  -8   15.67    2.54
   5  -5  -8   15.65    2.70
  -5   5   8   16.00    2.33
  -5   5   7   26.67    3.91
   5  -5  -7   21.02    3.24
   5  -5  -7   26.13    3.52
  -5   5   7   24.91    3.08
  -5   5   6   31.84    3.62
   5  -5  -6   26.36    3.66
  -5   5   6   30.28    3.46
  -5   5   5  116.52    8.26
  -5   5   5  105.83    8.12
   5  -5  -5   95.97    8.07
  -5   5   5  110.24    8.14
  -5   5   4  156.76   10.70
  -5   5   4  151.55   11.15
  -5   5   3  639.14   34.99
  -5   5   3  709.72   34.99
  -5   5   2    5.89    2.43
  -5   5   2    5.26    1.69
  -5   5   1    5.06    1.55
  -5   5   1    4.48    2.16
  -5   5   0   63.54    5.67
  -5   5   0   60.52    6.88
   5  -5   0   62.97    5.68
   5  -5   0   59.64    5.42
  -5   5  -1    2.94    1.83
   5  -5   1    1.70    0.95
   5  -5   1    0.83    1.52
   5  -5   2  128.00    9.67
   5  -5   2  161.35   12.82
   5  -5   3   17.49    2.79
   5  -5   3   13.72    2.52
   5  -5   4   91.96    7.69
   5  -5   5   67.45    6.36
   5  -5   6    2.06    1.57
   5  -5   6    1.72    1.18
   5  -5   7    3.21    1.69
   5  -5   7    3.34    1.38
   5  -5   8   35.85    4.06
   5  -5   8   31.93    3.36
  -5   4   9   13.24    1.79
   5  -4  -9   10.37    1.77
  -5   4   8    7.78    1.78
   5  -4  -8    7.45    1.86
  -5   4   7    3.04    1.48
   5  -4  -7    6.04    1.83
   5  -4  -7    5.80    1.79
   5  -4  -6  261.47   16.42
  -5   4   5    9.79    1.98
   5  -4  -5    8.64    2.02
  -5   4   5    8.66    1.84
  -5   4   4  115.37    8.12
  -5   4   4  106.65    8.20
   5  -4  -4  105.16    8.09
  -5   4   3   57.56    5.25
  -5   4   3   50.07    5.54
  -5   4   3   65.66    5.45
  -5   4   2  287.17   16.64
  -5   4   2  264.02   17.91
  -5   4   1   33.90    3.73
  -5   4   1   30.68    4.58
  -5   4   0  157.55   12.30
   5  -4   0  167.28   10.54
   5  -4   0  190.70   11.05
  -5   4  -1    8.16    2.36
   5  -4   1   11.57    2.06
   5  -4   2   32.67    3.75
   5  -4   2   48.05    6.10
   5  -4   3   20.71    2.94
   5  -4   3   20.57    2.91
   5  -4   4   35.12    5.36
   5  -4   4   34.51    4.00
   5  -4   4   37.59    4.23
   5  -4   5  411.15   27.27
   5  -4   5  441.30   25.24
   5  -4   5  454.76   26.18
   5  -4   6    5.33    2.15
   5  -4   6    3.75    2.28
   5  -4   6    5.01    1.75
   5  -4   7    2.37    2.09
   5  -4   7    3.71    1.87
   5  -4   7   -0.82    1.91
   5  -4   7    1.66    1.30
   5  -4   8    1.10    1.32
   5  -4   8    0.38    0.88
   5  -4   8    1.09    1.87
   5  -4   9    5.56    1.76
   5  -4   9    5.74    2.13
  -5   3   9    2.84    0.88
   5  -3  -9    2.42    0.92
  -5   3   8    9.46    1.89
   5  -3  -8   10.04    2.20
  -5   3   7  262.49   17.59
   5  -3  -7  292.00   18.38
   5  -3  -7  309.62   18.41
   5  -3  -6    2.81    1.30
   5  -3  -6    0.49    0.78
  -5   3   5   35.96    3.78
   5  -3  -5   34.91    4.06
  -5   3   4   31.37    3.45
  -5   3   4   30.06    3.36
   5  -3  -4   27.51    3.42
  -5   3   3    6.82    1.58
  -5   3   3    9.07    1.87
   5  -3  -3    6.87    1.57
  -5   3   3    7.22    2.98
  -5   3   3    5.98    1.61
  -5   3   2  210.70   13.10
  -5   3   2  201.23   13.86
  -5   3   2  240.83   13.49
  -5   3   1   39.28    3.81
  -5   3   1   34.14    6.95
  -5   3   1   36.85    4.58
   5  -3   0  440.54   22.80
   5  -3   0  412.19   22.49
   5  -3   1  308.39   16.98
   5  -3   1  287.00   16.74
   5  -3   2  139.96    8.97
   5  -3   2  128.06    8.81
   5  -3   3    1.96    0.90
   5  -3   3    1.23    1.73
   5  -3   3    5.44    1.50
   5  -3   3    2.97    1.06
   5  -3   4   31.58    4.07
   5  -3   4   29.59    4.69
   5  -3   4   30.96    3.84
   5  -3   4   32.68    3.56
   5  -3   4   29.62    3.56
   5  -3   4   32.83    5.02
   5  -3   4   23.68    3.08
   5  -3   5    4.80    1.93
   5  -3   5    3.37    2.21
   5  -3   5    4.19    1.62
   5  -3   5    2.38    1.22
   5  -3   6   34.65    4.64
   5  -3   6   26.82    4.92
   5  -3   6   27.14    4.10
   5  -3   6   22.76    4.07
   5  -3   6   34.71    4.15
   5  -3   7   31.88    4.63
   5  -3   7   35.25    5.51
   5  -3   7   22.80    4.23
   5  -3   7   36.50    4.29
   5  -3   8   25.00    4.11
   5  -3   8   24.85    4.63
   5  -3   8   27.98    3.56
   5  -3   9    1.31    1.35
   5  -3   9    0.34    1.37
   5  -3   9    0.74    1.71
   5  -3  10    1.82    1.17
   5  -3  10    2.87    1.68
   5  -3  10    0.94    1.05
  -5   2   9    7.07    1.29
   5  -2  -9    7.40    1.50
  -5   2   8    0.82    0.79
   5  -2  -8   -0.25    0.63
  -5   2   7  162.43   11.27
   5  -2  -7  162.89   12.05
  -5   2   6   15.67    3.42
   5  -2  -6   17.32    3.07
   5  -2  -6   17.84    3.07
   5  -2  -5    8.23    1.91
   5  -2  -5    8.93    2.08
   5  -2  -5   11.64    2.30
  -5   2   5   11.16    1.99
  -5   2   4    5.45    1.40
  -5   2   4    7.36    3.65
   5  -2  -4    5.80    1.55
  -5   2   4    4.65    1.24
  -5   2   3   28.43    3.14
  -5   2   3   32.97    3.30
   5  -2  -3   28.62    3.34
  -5   2   3   41.14    6.34
  -5   2   3   37.59    3.85
  -5   2   2  166.17   10.48
  -5   2   2  155.04   10.03
  -5   2   2  176.34   10.71
  -5   2   1   45.96    8.03
  -5   2   1   49.31    4.24
  -5   2   0  251.71   23.43
   5  -2   0  268.69   14.87
   5  -2   1  118.81    7.68
   5  -2   2  102.75    6.92
   5  -2   2   96.78    6.74
   5  -2   2   93.33    6.61
   5  -2   3  615.08   32.39
   5  -2   3  589.50   30.89
   5  -2   3  589.52   30.72
   5  -2   3  608.96   30.46
   5  -2   3  608.19   30.46
   5  -2   3  530.80   29.98
   5  -2   4  487.96   26.80
   5  -2   4  450.88   27.64
   5  -2   4  516.97   26.70
   5  -2   4  482.88   25.81
   5  -2   4  481.11   25.99
   5  -2   4  541.27   28.61
   5  -2   4  414.29   25.31
   5  -2   5    0.26    1.05
   5  -2   5   -0.33    1.80
   5  -2   5    0.48    0.81
   5  -2   5    0.19    0.70
   5  -2   6   44.14    5.23
   5  -2   6   40.85    5.64
   5  -2   6   39.09    4.77
   5  -2   6   39.34    4.43
   5  -2   7   15.36    3.30
   5  -2   7   16.37    3.93
   5  -2   7   15.71    3.07
   5  -2   7    9.18    2.74
   5  -2   7   12.80    2.59
   5  -2   8    1.89    1.52
   5  -2   8    2.44    2.22
   5  -2   8    0.68    1.53
   5  -2   8    2.23    1.32
   5  -2   9   76.82    7.10
   5  -2   9   68.10    7.52
   5  -2  10    2.82    1.94
   5  -2  10    3.01    1.47
   5  -2  10    3.81    2.27
   5  -2  11    5.71    1.71
   5  -2  11    8.06    2.10
   5  -1  -9   38.21    3.52
  -5   1   8    0.88    0.65
   5  -1  -8    0.70    0.79
  -5   1   7    1.00    0.85
  -5   1   7    2.27    1.76
   5  -1  -7    0.28    0.71
  -5   1   6   49.40    5.52
   5  -1  -6   52.37    5.51
  -5   1   6   50.87    7.84
  -5   1   5    2.25    1.93
  -5   1   5    2.70    4.16
   5  -1  -5    0.22    0.69
   5  -1  -4  105.37    7.89
   5  -1  -4  104.59    7.71
   5  -1  -4  114.25    8.30
  -5   1   4  107.01   11.09
   5  -1  -3  101.86    7.89
   5  -1  -3  113.73    8.16
   5  -1  -3  110.30    7.87
  -5   1   3  131.62   12.44
  -5   1   2    9.50    1.80
  -5   1   2    5.85    1.22
   5  -1  -2    7.11    1.46
   5  -1  -1  109.27    8.00
  -5   1   1  139.81   14.06
  -5   1   1  147.10    8.64
   5  -1   0   21.66    2.46
  -5   1   0   18.45    5.83
   5  -1   1  113.89    7.28
   5  -1   1  108.95    7.04
   5  -1   2   18.63    2.37
   5  -1   2   15.57    1.99
   5  -1   3 2083.56  102.67
   5  -1   3 2036.66  102.28
   5  -1   4  164.78   11.16
   5  -1   4  159.48   11.87
   5  -1   4  183.35   11.20
   5  -1   4  171.07   10.50
   5  -1   4  186.78   12.58
   5  -1   4  183.49   10.78
   5  -1   4  160.91   10.25
   5  -1   5   49.43    5.64
   5  -1   5   51.49    5.03
   5  -1   5   46.50    5.05
   5  -1   5   48.88    4.50
   5  -1   6   61.81    6.29
   5  -1   6   62.34    6.12
   5  -1   6   64.31    5.72
   5  -1   7  462.14   27.43
   5  -1   7  456.62   28.44
   5  -1   7  482.37   27.29
   5  -1   7  479.58   26.49
   5  -1   8   69.52    6.93
   5  -1   8   73.42    7.97
   5  -1   8   63.76    6.61
   5  -1   8   58.87    6.66
   5  -1   9   97.23    9.35
   5  -1   9  109.84   10.38
   5  -1  10    7.90    2.35
   5  -1  10    7.90    2.79
   5  -1  10    6.23    2.22
   5  -1  11   70.64    6.77
   5  -1  11   55.08    5.68
   5   0  -8    5.42    1.56
  -5   0   8    3.35    1.24
  -5   0   7    4.23    1.31
  -5   0   7    8.01    2.62
   5   0  -7    5.62    1.71
  -5   0   6    0.22    0.74
  -5   0   6    0.54    2.28
   5   0  -6    0.71    0.91
  -5   0   5   56.89    6.08
   5   0  -5   57.61    5.32
  -5   0   5   60.19   10.19
  -5   0   5   54.25    6.12
   5   0  -4   56.45    4.93
  -5   0   4   57.86    7.50
   5   0  -3  171.71   11.03
  -5   0   3  190.20   15.75
  -5   0   3  206.08   12.21
   5   0  -2  460.08   25.52
   5   0  -2  475.78   25.68
   5   0  -2  437.06   25.00
  -5   0   2  497.42   30.61
  -5   0   2  509.18   26.14
   5   0  -1  555.04   29.69
   5   0  -1  518.55   29.28
  -5   0   1  621.35   30.08
   5   0   0  126.25    8.21
  -5   0   0  134.59   14.19
   5   0   1   68.42    4.93
  -5   0  -1   58.57   10.35
   5   0   2 1422.86   70.72
   5   0   3  191.93   11.57
   5   0   4 1671.41   83.93
   5   0   5  460.86   25.38
   5   0   5  437.35   25.95
   5   0   5  458.45   25.19
   5   0   5  457.38   24.62
   5   0   6   14.78    2.71
   5   0   6   19.50    3.47
   5   0   6   16.28    2.77
   5   0   6   13.21    2.22
   5   0   7    0.26    1.11
   5   0   7   -0.33    1.68
   5   0   7    0.73    1.17
   5   0   7    1.33    1.09
   5   0   8   54.19    5.87
   5   0   8   45.58    6.04
   5   0   8   52.32    5.60
   5   0   9   53.74    6.97
   5   0   9   56.69    6.37
   5   0   9   66.27    6.59
   5   0  10  275.37   17.77
   5   0  10  261.52   16.18
   5   0  11   13.24    3.06
   5   0  11   13.28    2.76
   5   0  11   19.57    3.91
   5   0  12   22.72    3.23
   5   0  12   14.32    2.30
   5   0  12   21.01    3.19
   5   1  -8    0.79    0.64
  -5  -1   8    0.75    0.61
   5   1  -7   31.75    3.76
  -5  -1   6   -0.46    2.07
   5   1  -6    1.05    0.86
  -5  -1   5   22.43    5.92
   5   1  -5   19.10    2.78
   5   1  -4    6.39    1.48
  -5  -1   4    6.99    2.48
   5   1  -3  152.74   10.10
  -5  -1   3  166.09   14.25
   5   1  -2   74.94    6.04
   5   1  -2   82.57    6.00
  -5  -1   2   76.02    9.17
  -5  -1   2   81.59    6.83
   5   1  -1    3.77    1.10
   5   1  -1    4.13    1.12
  -5  -1   1    2.97    2.19
   5   1   0  735.99   38.01
   5   1   1    2.28    0.76
   5   1   1    1.37    0.60
  -5  -1  -1    2.03    2.89
   5   1   2 1104.32   55.60
   5   1   2 1125.31   55.71
  -5  -1  -2 1060.42   66.18
   5   1   3  607.53   32.41
   5   1   3  692.08   33.09
   5   1   4    5.52    1.17
   5   1   4    3.41    1.19
   5   1   5  434.67   24.74
   5   1   5  436.21   23.90
   5   1   5  467.40   24.75
   5   1   5  451.34   24.27
   5   1   5  488.22   26.36
   5   1   6    5.67    1.86
   5   1   6    3.30    1.68
   5   1   6    6.32    1.67
   5   1   6    5.12    1.44
   5   1   7   14.32    2.73
   5   1   7   10.72    2.84
   5   1   7   10.95    2.36
   5   1   7    9.46    1.93
   5   1   8   53.70    5.84
   5   1   8   65.97    6.99
   5   1   8   57.18    5.81
   5   1   9    8.86    2.92
   5   1  10   50.64    6.39
   5   1  11   87.06    8.30
   5   1  11   76.44    7.38
   5   1  11   95.49    8.91
   5   1  12   -0.25    1.21
   5   1  12    0.20    0.85
   5   2  -7    4.69    1.25
  -5  -2   6    2.27    1.95
   5   2  -6    4.35    1.39
  -5  -2   5    1.69    2.52
   5   2  -5    1.43    0.89
   5   2  -4  165.40   10.54
  -5  -2   4  160.49   17.47
  -5  -2   4  163.86   11.71
  -5  -2   3  400.12   24.78
   5   2  -3  381.27   21.67
  -5  -2   3  451.07   25.08
  -5  -2   2   11.58    2.59
   5   2  -2   11.72    1.89
  -5  -2   2   11.60    3.45
  -5  -2   1    0.68    0.77
   5   2  -1   -0.42    0.57
   5   2  -1    0.14    0.44
  -5  -2   1    2.19    2.18
   5   2   0  148.78    9.52
  -5  -2   0  163.95   12.67
   5   2   0  156.67    9.67
  -5  -2   0  172.54   10.70
   5   2   1  125.02    7.73
   5   2   1  125.36    7.62
   5   2   2    1.12    0.57
   5   2   2    0.28    0.46
  -5  -2  -2    1.24    1.95
   5   2   3  635.83   32.40
   5   2   3  636.87   32.66
   5   2   4  231.51   12.92
   5   2   4  248.91   13.48
   5   2   5  197.93   12.71
   5   2   5  218.91   12.27
   5   2   5  220.50   12.52
   5   2   5  208.16   12.16
   5   2   6   50.29    4.10
   5   2   6   46.67    4.65
   5   2   6   54.89    4.79
   5   2   6   47.92    4.32
   5   2   6   47.89    4.08
   5   2   7    8.96    2.16
   5   2   7    7.70    1.96
   5   2   9   12.28    3.19
   5   2  10   11.97    3.35
   5   2  11   32.23    4.76
   5   2  12   29.00    4.12
   5   3  -7    0.70    0.58
  -5  -3   7    1.03    0.74
   5   3  -6   19.06    2.45
   5   3  -5  117.59    7.86
  -5  -3   5   93.82    9.99
   5   3  -4  160.95    9.91
  -5  -3   4  121.25   13.70
   5   3  -3  155.93    9.98
  -5  -3   3  160.74   17.54
  -5  -3   3  145.85   17.21
   5   3  -3  165.13   10.87
  -5  -3   3  172.62   13.07
  -5  -3   3  159.35   11.25
  -5  -3   2    1.00    1.28
  -5  -3   2    6.62    7.67
  -5  -3   2    0.91    1.30
   5   3  -2    2.17    1.01
  -5  -3   1   21.99    3.61
   5   3  -1   19.53    2.33
  -5  -3   1   18.79    3.92
   5   3  -1   22.21    2.66
   5   3   0   14.24    2.52
  -5  -3   0   12.35    2.52
   5   3   0   11.97    1.73
   5   3   0   13.79    1.90
   5   3   1   39.91    3.36
   5   3   1   35.64    3.61
   5   3   2   24.05    2.35
   5   3   3  815.70   40.70
   5   3   3  793.34   40.88
   5   3   4  898.89   45.57
   5   3   4  913.15   45.88
   5   3   5  158.86   10.49
   5   3   5  168.56    9.97
   5   3   5  169.42   10.26
   5   3   5  168.34    9.96
   5   3   6   40.28    3.59
   5   3   6   37.09    3.51
   5   3   6   41.95    3.87
   5   4  -6    0.11    0.43
  -5  -4   6    0.16    0.66
  -5  -4   6   -0.25    0.87
   5   4  -5    6.81    1.41
  -5  -4   5    7.16    2.78
   5   4  -4  362.57   19.40
  -5  -4   4  307.43   22.59
  -5  -4   3    0.59    2.62
   5   4  -3    0.15    0.53
  -5  -4   3   -0.43    1.55
  -5  -4   2   17.72    7.34
   5   4  -2   18.90    2.70
  -5  -4   2   19.74    4.03
  -5  -4   1    0.35    1.12
  -5  -4   1   -2.31    9.84
   5   4  -1    1.35    0.81
   5   4   0   74.13    5.28
   5   4   0   69.56    5.45
  -5  -4   0   74.25    7.32
   5   4   0   83.12    7.60
   5   4   1  485.49   26.95
   5   4   1  507.71   27.08
   5   4   1  584.13   34.58
  -5  -4  -1  570.42   30.01
   5   4   1  533.86   28.34
   5   4   2  185.96   10.97
   5   4   2  182.27   10.81
   5   4   2  210.77   13.96
  -5  -4  -2  166.47   16.70
   5   4   2  203.73   11.49
   5   4   3   31.83    2.92
   5   4   3   32.67    2.97
   5   4   3   36.16    3.25
   5   4   3   32.73    3.75
  -5  -4  -3   22.07    5.43
   5   4   4 1052.72   50.72
   5   4   4 1006.66   50.88
   5   4   4 1031.00   51.60
   5   4   4  950.49   50.53
   5   4   5  323.18   17.91
   5   4   5  334.68   18.37
   5   4   6    0.64    0.55
   5   4   6    0.13    0.68
   5   4   6   -0.15    0.78
   5   4   7   99.04    6.94
   5   5  -5   13.16    1.73
  -5  -5   5   10.85    2.70
   5   5  -4   -0.13    0.37
   5   5  -3    0.42    0.54
  -5  -5   3    0.47    1.34
  -5  -5   2   21.24    6.46
   5   5  -2   20.33    2.86
  -5  -5   2   18.82    4.12
  -5  -5   1   22.02    9.22
  -5  -5   1   16.85    3.82
   5   5  -1   13.11    2.19
   5   5   0  144.45   11.96
   5   5   0  123.95    8.49
  -5  -5   0  124.48   11.10
   5   5   1  467.25   25.28
   5   5   1  419.57   23.02
   5   5   1  425.35   23.33
  -5  -5  -1  452.67   26.67
   5   5   2   64.39    4.94
   5   5   2   70.51    5.10
   5   5   2   71.24    8.17
  -5  -5  -2   54.59   12.00
   5   5   2   70.62    5.57
   5   5   3  520.09   28.45
   5   5   3  551.14   28.42
   5   5   3  552.33   29.28
   5   5   3  564.65   30.98
   5   5   4   35.08    3.32
   5   5   4   35.71    3.34
   5   5   4   36.53    3.42
   5   5   4   33.53    3.83
  -5  -5  -4   31.10    7.70
   5   5   4   30.51    2.94
   5   5   5   28.54    2.77
   5   5   5   23.94    2.71
   5   5   5   23.62    2.97
   5   5   5   26.51    2.72
  -5  -5  -5   23.95    7.14
   5   5   6    5.16    1.39
   5   5   6    7.63    1.37
   5   5   6    3.89    1.20
   5   5   6    6.33    1.58
   5   5   6    5.49    1.20
  -5  -5  -6    2.10    3.03
   5   5   7  140.67    9.17
   5   5   7  135.56    8.51
   5   5   7  122.74    8.55
   5   5   8  159.04   10.23
   5   5   8  150.29    9.63
   5   6  -5    1.72    0.57
  -5  -6   5    2.04    1.05
   5   6  -4    2.04    0.71
  -5  -6   4    3.11    1.72
  -5  -6   3    0.47    1.34
  -5  -6   2   14.85    3.91
  -5  -6   1   82.50    9.56
  -5  -6   0  238.94   27.94
   5   6   0  275.88   16.65
  -5  -6   0  299.18   20.93
  -5  -6  -1   68.45   19.27
   5   6   1   83.30    6.24
  -5  -6  -1   79.24    8.74
   5   6   1   91.69    8.06
   5   6   2  237.94   13.98
  -5  -6  -2  230.63   17.01
   5   6   2  246.21   14.88
   5   6   3    4.74    1.35
  -5  -6  -3    4.56    7.18
   5   6   4   13.64    1.95
   5   6   4   19.11    2.53
   5   6   4   13.95    2.02
   5   6   4   17.52    3.11
  -5  -6  -4   18.35   10.51
   5   6   5   18.04    2.38
   5   6   5   22.94    2.62
   5   6   5   18.84    2.43
   5   6   5   17.97    2.27
   5   6   5   18.96    2.50
   5   6   5   21.82    3.00
   5   6   5   20.27    2.47
   5   6   6   42.44    4.13
   5   6   6   47.88    3.96
   5   6   6   39.46    3.71
   5   6   6   44.13    3.82
   5   6   6   39.79    3.83
   5   6   6   44.20    4.23
   5   6   6   40.93    3.88
  -5  -6  -6   53.03   13.50
   5   6   7  216.38   12.79
   5   6   7  230.30   13.61
   5   6   7  221.79   12.89
   5   6   7  207.91   12.97
   5   6   7  211.69   12.91
  -5  -6  -7  223.38   31.66
   5   6   8  171.60   11.23
   5   6   8  199.71   12.17
   5   6   8  186.57   11.38
   5   6   9  129.39    8.74
   5   6   9  122.99    8.51
   5   6  10    0.65    0.75
  -5  -7   4    6.44    1.68
  -5  -7   3    2.65    1.54
  -5  -7   3    2.29    1.56
  -5  -7   2   17.46    4.22
  -5  -7   1    2.72    1.85
  -5  -7   0   94.82   10.60
   5   7   1   69.16    5.74
  -5  -7  -1   74.73    9.10
   5   7   1   79.29    7.74
   5   7   2  270.39   16.07
  -5  -7  -2  262.90   19.96
   5   7   2  294.16   17.31
   5   7   3   48.88    4.27
   5   7   3   49.57    4.57
   5   7   4    9.89    1.77
   5   7   4   10.82    2.05
   5   7   4    8.90    1.91
   5   7   4    7.36    1.61
   5   7   5   23.51    2.91
   5   7   5   25.20    3.10
   5   7   5   31.22    3.09
   5   7   5   25.08    3.09
   5   7   6    7.87    1.65
   5   7   6    5.68    1.59
   5   7   6    6.85    1.46
   5   7   6    7.53    1.59
   5   7   6    7.28    1.75
   5   7   6    7.44    1.67
   5   7   7  122.48    8.39
   5   7   7  106.20    7.72
   5   7   7  114.23    7.78
   5   7   7  114.68    7.83
   5   7   7  107.80    7.91
   5   7   8   23.22    2.94
   5   7   8   28.25    3.51
   5   7   8   26.27    3.01
   5   7   9   -0.20    1.11
   5   7   9    0.17    0.64
   5   7   9    0.18    0.56
   5   7  10   11.53    2.04
   5   7  11    6.93    1.77
   5   7  11    8.58    1.70
  -5  -8   3   -0.18    0.58
  -5  -8   3   -0.24    0.88
  -5  -8   2    6.24    1.98
  -5  -8   2    3.75    1.82
  -5  -8   1    4.31    2.23
  -5  -8   0    2.16    1.97
  -5  -8  -1   64.66    8.63
  -5  -8  -2   68.56    8.91
   5   8   3   43.97    4.41
  -5  -8  -3   19.36   11.03
   5   8   4  426.34   21.50
   5   8   4  345.61   21.00
   5   8   4  422.71   20.65
   5   8   4  358.88   20.58
   5   8   4  312.44   20.24
   5   8   5  117.14    8.67
   5   8   5  125.30    9.10
   5   8   5  144.44    8.91
   5   8   5  127.83    9.12
   5   8   6    0.17    0.88
   5   8   6    2.19    1.10
   5   8   6   -0.61    0.74
   5   8   6   -0.71    0.72
   5   8   6    0.38    0.74
   5   8   7    0.85    0.73
   5   8   7    3.15    1.39
   5   8   7    1.10    0.81
   5   8   7    1.41    0.82
   5   8   8    0.35    0.72
   5   8   8    0.81    0.97
   5   8   8    1.14    0.89
   5   8   9    4.64    1.69
   5   8   9    3.78    1.25
   5   8   9    3.25    1.24
   5   8  10  154.02    9.94
   5   8  10  143.28    9.56
   5   8  11   21.15    2.64
   5   8  12    2.54    1.03
   5   8  12    3.85    1.07
   5   9  -1    0.25    0.54
  -5  -9   1    0.34    0.98
  -5  -9   0   20.78    4.29
  -5  -9  -1   12.25    3.46
   5   9   1   14.88    2.39
   5   9   2   34.39    3.71
  -5  -9  -2   25.38    5.20
   5   9   3   40.35    4.14
   5   9   4   -0.18    0.77
   5   9   5   25.61    3.09
   5   9   5   22.61    2.74
   5   9   6   17.35    2.51
   5   9   6   14.81    2.32
   5   9   6   18.96    2.47
   5   9   7   13.10    2.19
   5   9   7   12.09    2.17
   5   9   7   13.57    2.12
   5   9   8  150.09    9.66
   5   9   8  130.22    9.58
   5   9   8  146.87    9.36
   5   9   9   34.05    3.61
   5   9   9   30.81    3.38
   5   9  10    0.33    0.71
   5   9  10    0.15    0.79
   5   9  11    1.61    0.85
   5   9  12   42.78    3.80
   5   9  12   40.50    3.43
   5  10   0   34.24    2.88
  -5 -10   0   27.80    4.11
   5  10   1   17.64    2.15
  -5 -10  -1   12.91    3.17
   5  10   2   35.15    3.41
   5  10   3   41.51    3.89
   5  10   4   -0.15    0.65
   5  10   5   -0.15    0.71
   5  10   6   20.52    2.62
   5  10   7   65.60    5.29
   5  10   7   63.44    5.04
   5  10   8   37.45    3.83
   5  10   8   42.78    3.83
   5  10   9   15.12    2.20
   5  10   9   13.68    1.99
   5  10  10   14.69    2.09
   5  10  10   10.30    1.70
   5  10  11    0.67    0.59
   5  11   2    8.66    1.26
  -5 -11  -2    5.91    1.77
   5  11   3   14.27    1.79
  -5 -11  -3   13.40    2.90
   5  11   4    0.57    0.53
  -5 -11  -4    0.34    1.16
   5  11   5    0.72    0.58
  -5 -11  -5    0.36    1.46
   5  11   6    2.11    0.81
  -5 -11  -6    0.36    1.03
   5  11   7    0.63    0.67
   5  11   8   -0.13    0.57
   5  11   9    0.37    0.47
   5  11   9    0.64    0.64
   5  11  10    0.87    0.57
   5  12   5    0.47    0.42
  -5 -12  -5    1.10    0.94
   5  12   6    0.51    0.42
  -5 -12  -6    0.45    0.77
   5  12   7    4.43    0.93
   5  12   8    0.09    0.42
  -6  10   4    0.88    0.52
  -6  10   3    3.14    0.91
  -6  10   2    7.49    1.39
  -6  10   2    6.79    1.33
  -6  10   1    1.22    0.68
  -6  10   1    1.51    0.76
  -6  10   0   -0.15    0.55
  -6  10   0    0.26    0.58
  -6   9   6   19.30    1.98
  -6   9   6   15.30    1.78
  -6   9   5    0.70    0.57
  -6   9   5    0.58    0.52
  -6   9   4   39.47    3.68
  -6   9   3   30.85    3.32
  -6   9   3   32.20    3.38
  -6   9   2   15.23    2.38
  -6   9   2   20.78    2.70
  -6   9   1   31.28    3.56
   6  -9   0    3.02    1.20
  -6   9   0    9.23    1.92
   6  -9   1    2.89    1.04
   6  -9   2   -0.14    0.58
   6  -9   3   19.86    2.28
   6  -8  -7   45.25    3.86
  -6   8   6   42.21    3.58
  -6   8   6   37.29    3.35
  -6   8   5    0.15    0.58
  -6   8   5    0.15    0.51
  -6   8   4   52.06    4.77
  -6   8   3    6.55    1.64
  -6   8   3    4.11    1.35
  -6   8   2    6.24    1.70
  -6   8   1   15.67    2.63
   6  -8   0   -0.21    0.71
  -6   8   0    0.23    0.79
   6  -8   1    1.26    1.02
   6  -8   2    0.20    0.68
   6  -8   3    0.53    0.75
   6  -8   4    6.73    1.43
   6  -7  -7   57.24    4.76
   6  -7  -7   62.36    5.14
  -6   7   6    1.64    0.84
   6  -7  -6    2.26    1.03
  -6   7   5   32.97    3.62
  -6   7   5   36.38    3.71
  -6   7   4  128.05    9.13
  -6   7   3    0.22    0.68
  -6   7   3    0.22    0.88
  -6   7   2   37.59    4.34
  -6   7   1   80.07    6.94
   6  -7   0   26.86    3.67
  -6   7   0   26.42    3.70
   6  -7   1  123.09    9.36
   6  -7   2   -0.24    0.86
   6  -7   3    7.29    2.00
   6  -7   4   15.19    2.52
   6  -7   4   22.45    3.04
   6  -7   5    2.25    1.18
   6  -7   6    0.79    0.76
   6  -6  -8    1.35    0.63
   6  -6  -7   21.71    2.70
   6  -6  -7   23.82    3.09
   6  -6  -6   14.32    2.54
  -6   6   5   36.34    3.91
  -6   6   4   93.98    7.39
  -6   6   3   51.53    5.19
  -6   6   3   52.60    5.26
  -6   6   2   94.31    8.03
  -6   6   2  112.81    8.35
  -6   6   1   44.36    4.83
  -6   6   0   46.39    5.03
   6  -6   0   43.38    4.88
   6  -6   0   42.30    4.69
   6  -6   1   26.10    3.69
   6  -6   2    4.71    1.73
   6  -6   3  181.21   12.38
   6  -6   4    4.91    1.70
   6  -6   4    8.21    2.07
   6  -6   5   11.31    2.38
   6  -6   6    1.91    1.13
   6  -6   7   -0.29    0.66
  -6   5   8    0.92    0.58
   6  -5  -8    1.70    0.71
  -6   5   7    2.36    1.14
   6  -5  -7    4.70    1.31
   6  -5  -7    3.42    1.30
   6  -5  -6   -0.46    0.79
  -6   5   5   21.54    2.95
   6  -5  -5   22.07    3.23
  -6   5   4  133.82    9.46
  -6   5   3  400.47   23.35
  -6   5   3  368.23   23.85
  -6   5   2  145.58   10.67
  -6   5   2  167.20   11.07
  -6   5   1    2.97    1.25
   6  -5   0    1.91    1.10
   6  -5   0    3.45    1.30
   6  -5   1   21.92    3.28
   6  -5   1   23.75    3.36
   6  -5   2   38.99    4.49
   6  -5   2   44.85    4.85
   6  -5   3   68.04    6.39
   6  -5   3   80.16    6.75
   6  -5   3   69.92    6.42
   6  -5   4    4.12    1.52
   6  -5   4    6.11    1.85
   6  -5   5    2.93    1.48
   6  -5   6   -0.23    1.11
   6  -5   7    5.95    1.97
   6  -5   7    8.21    1.98
   6  -5   8    0.91    0.99
   6  -5   8    0.42    0.67
  -6   4   8    1.37    0.72
   6  -4  -8    1.80    0.78
  -6   4   7   87.15    7.19
   6  -4  -7   95.07    7.16
   6  -4  -6    1.73    1.04
   6  -4  -6    0.98    0.89
   6  -4  -5   63.83    6.05
  -6   4   4  263.16   16.04
   6  -4  -4  276.24   16.78
  -6   4   3  566.23   32.90
  -6   4   3  684.58   34.04
  -6   4   2   22.14    3.04
  -6   4   2   28.87    3.56
  -6   4   1   29.06    3.68
   6  -4   0   20.42    2.82
   6  -4   0   23.26    3.08
   6  -4   1    1.23    0.88
   6  -4   1    1.24    0.80
   6  -4   2   14.97    2.59
   6  -4   2   12.33    2.30
   6  -4   3  243.57   16.06
   6  -4   3  295.80   16.64
   6  -4   3  256.50   16.15
   6  -4   4  320.96   18.91
   6  -4   4  340.02   19.22
   6  -4   4  285.24   18.33
   6  -4   5   21.48    3.34
   6  -4   6    3.68    1.98
   6  -4   6    2.95    1.59
   6  -4   7    5.24    2.03
   6  -4   7    3.68    1.46
   6  -4   8    3.26    1.63
   6  -4   8    4.84    1.49
   6  -4   9   29.09    3.48
  -6   3   8    0.74    0.57
   6  -3  -8   -0.14    0.52
  -6   3   7    5.95    1.68
   6  -3  -7    5.40    1.55
  -6   3   6   12.38    3.06
   6  -3  -6   13.38    2.47
   6  -3  -5  134.89   10.04
   6  -3  -5  155.91   10.80
  -6   3   4   25.70    3.18
   6  -3  -4   26.66    3.75
   6  -3  -4   25.64    3.50
  -6   3   3    0.23    0.72
  -6   3   3    0.35    0.63
  -6   3   2  113.55    8.20
  -6   3   2  128.57    8.94
  -6   3   1  435.09   34.74
  -6   3   1  549.79   28.76
  -6   3   0  440.22   36.85
   6  -3   0  485.67   27.77
   6  -3   1   31.77    3.45
   6  -3   1   30.80    3.38
   6  -3   2  241.94   14.65
   6  -3   2  240.24   14.65
   6  -3   3    0.19    0.71
   6  -3   3   -0.59    0.97
   6  -3   3   -0.60    0.68
   6  -3   4    0.99    0.84
   6  -3   4    1.30    1.00
   6  -3   4    0.43    0.73
   6  -3   4    1.14    2.07
   6  -3   5  283.80   17.89
   6  -3   5  216.81   18.20
   6  -3   5  276.05   17.58
   6  -3   5  289.11   16.94
   6  -3   5  271.52   19.33
   6  -3   6  144.14   11.24
   6  -3   6  163.06   13.20
   6  -3   6  112.03   11.50
   6  -3   6  135.79   10.81
   6  -3   6  143.27   10.29
   6  -3   7  139.26   12.24
   6  -3   7  136.41   10.74
   6  -3   7  139.31    9.93
   6  -3   8    2.94    1.86
   6  -3   8    5.12    2.38
   6  -3   8    3.49    1.57
   6  -3   8    5.39    2.78
   6  -3   9    2.06    1.87
   6  -3   9    1.47    1.60
   6  -3   9    0.96    1.60
   6  -3  10    0.84    0.92
   6  -3  10    0.71    1.22
  -6   2   8    3.45    0.96
   6  -2  -8    2.67    0.91
  -6   2   7   16.97    2.55
   6  -2  -7   20.70    2.89
  -6   2   6    0.56    1.15
   6  -2  -6    2.92    1.36
   6  -2  -5    3.91    1.32
   6  -2  -4  130.02    9.77
   6  -2  -4  141.06    9.91
  -6   2   4  108.54   12.22
  -6   2   3  106.70   11.86
  -6   2   3   94.70    7.41
   6  -2  -3  116.69    8.62
   6  -2  -3  114.72    8.36
  -6   2   3  122.31    8.84
  -6   2   2  135.50    9.26
   6  -2  -2  146.14   10.18
  -6   2   2  169.74   10.57
  -6   2   1   14.86    2.35
   6  -2  -1   16.05    2.43
  -6   2   1    9.76    4.27
   6  -2   0  473.33   24.41
  -6   2   0  401.63   33.53
  -6   2   0  445.73   24.16
   6  -2   0  414.32   23.54
   6  -2   1    2.20    0.86
  -6   2  -1    0.50    0.57
  -6   2  -1    2.06    3.98
   6  -2   1    1.05    0.61
   6  -2   2  220.45   13.41
   6  -2   2  226.62   13.40
   6  -2   3  157.31   10.69
   6  -2   3  154.07   10.38
   6  -2   3  172.60   10.55
   6  -2   3  158.50   12.29
   6  -2   3  160.82   10.37
   6  -2   4   32.42    4.18
   6  -2   4   31.49    4.01
   6  -2   4   34.58    3.75
   6  -2   4   36.99    3.90
   6  -2   4   29.09    4.90
   6  -2   4   30.15    3.44
   6  -2   5    2.27    1.75
   6  -2   5    1.90    2.13
   6  -2   5    2.71    1.67
   6  -2   5    2.10    1.18
   6  -2   5   -0.39    2.58
   6  -2   6  223.97   15.29
   6  -2   6  189.86   15.75
   6  -2   6  231.26   15.16
   6  -2   6  214.75   14.05
   6  -2   6  232.76   17.04
   6  -2   7   39.75    5.17
   6  -2   7   31.83    5.57
   6  -2   7   41.85    4.70
   6  -2   7   38.76    6.33
   6  -2   8    9.36    2.77
   6  -2   8    3.82    2.75
   6  -2   8    6.77    1.95
   6  -2   8    7.77    3.24
   6  -2   9    1.70    1.71
   6  -2   9   -0.38    1.77
   6  -2   9   -0.41    1.98
   6  -2  10   34.88    4.09
   6  -2  10   27.15    4.31
   6  -2  10   35.92    4.96
  -6   1   8    3.37    0.87
   6  -1  -8    4.42    1.08
  -6   1   7    9.37    1.78
  -6   1   7   10.32    2.56
   6  -1  -7   12.08    2.12
  -6   1   6   15.88    2.80
  -6   1   6   15.80    4.16
   6  -1  -6   21.35    2.99
  -6   1   5   -0.85    3.09
   6  -1  -5    0.41    0.69
   6  -1  -4   68.68    6.14
   6  -1  -4   64.63    5.52
  -6   1   4   59.00    8.35
   6  -1  -3  103.83    8.38
   6  -1  -3  117.07    8.68
   6  -1  -3  105.83    7.99
  -6   1   3  112.73   12.40
  -6   1   3  124.92    9.23
   6  -1  -2   81.44    6.59
  -6   1   2   73.94    9.47
   6  -1  -2   75.96    6.35
   6  -1  -2   67.81    5.87
  -6   1   2   85.57    6.82
   6  -1  -1  365.82   21.71
  -6   1   1  406.55   21.91
   6  -1   0   51.40    4.70
  -6   1   0   47.22    9.16
   6  -1   0   49.20    4.18
  -6   1   0   50.94    4.50
   6  -1   1   18.80    2.53
  -6   1  -1   15.57    6.04
  -6   1  -1   19.38    2.48
   6  -1   1   21.52    2.47
   6  -1   2  109.32    7.40
   6  -1   3  346.82   23.25
   6  -1   3  380.21   22.09
   6  -1   3  416.35   21.48
   6  -1   3  393.54   21.41
   6  -1   4    0.97    1.76
   6  -1   4    0.22    1.12
   6  -1   4    0.60    1.50
   6  -1   4    1.65    1.27
   6  -1   4    2.02    0.98
   6  -1   4    2.33    1.11
   6  -1   5  575.79   31.45
   6  -1   5  601.61   31.39
   6  -1   5  570.29   30.30
   6  -1   5  567.21   33.08
   6  -1   6    4.67    2.17
   6  -1   6    5.62    2.73
   6  -1   6    6.39    2.13
   6  -1   6    3.58    1.60
   6  -1   6    5.01    2.90
   6  -1   7   11.14    2.85
   6  -1   7    7.66    3.10
   6  -1   7    8.90    2.49
   6  -1   7   10.35    2.36
   6  -1   7    9.15    3.75
   6  -1   8   66.89    6.90
   6  -1   8   51.27    7.04
   6  -1   8   69.38    6.20
   6  -1   8   71.34    8.51
   6  -1   9   14.76    3.30
   6  -1   9   20.60    4.40
   6  -1   9   26.72    5.14
   6  -1  10   42.54    5.85
   6  -1  10   57.99    5.76
   6  -1  10   49.14    6.42
   6  -1  11   43.60    4.24
   6  -1  11   50.01    5.49
  -6   0   7   -0.25    1.03
   6   0  -7   -0.16    0.66
  -6   0   6    1.78    1.98
   6   0  -6    0.94    0.80
  -6   0   5    1.06    1.18
  -6   0   5    4.53    3.76
   6   0  -5    0.37    0.59
  -6   0   4  197.60   16.24
   6   0  -4  217.28   13.02
   6   0  -3   65.55    5.89
   6   0  -3   56.96    5.03
   6   0  -3   71.39    5.81
  -6   0   3   83.74    7.24
  -6   0   3   67.33    9.23
   6   0  -2  149.30   10.20
   6   0  -2  136.32    9.59
  -6   0   2  153.07   10.69
  -6   0   2  160.73   14.86
  -6   0   1   13.67    2.31
   6   0  -1   11.58    2.15
   6   0  -1    7.81    1.69
   6   0   0  217.69   13.33
  -6   0   0  222.57   20.20
   6   0   0  211.61   13.04
  -6   0   0  232.19   13.36
   6   0   0  210.44   12.63
   6   0   1   51.41    4.32
   6   0   1   41.34    3.63
  -6   0  -1   41.91    8.89
   6   0   1   45.92    4.11
  -6   0  -1   49.47    4.21
   6   0   1   44.33    3.82
   6   0   2   95.59    7.66
   6   0   2  108.53    6.86
  -6   0  -2   87.10   12.98
   6   0   2  100.97    6.86
   6   0   3  455.80   24.65
   6   0   3  432.21   23.63
   6   0   3  457.54   23.69
   6   0   3  397.80   25.65
   6   0   4   72.75    5.65
   6   0   4   72.49    6.24
   6   0   4   82.81    6.36
   6   0   4   72.60    5.73
   6   0   4   77.18    7.45
   6   0   5   11.80    2.53
   6   0   5    8.52    1.72
   6   0   5    6.88    2.45
   6   0   5   12.71    2.42
   6   0   5   12.15    2.10
   6   0   5   14.36    3.47
   6   0   6  814.80   41.72
   6   0   6  720.66   39.57
   6   0   6  838.08   41.59
   6   0   6  768.71   40.33
   6   0   6  836.95   43.99
   6   0   7  133.79   10.53
   6   0   7  129.65   11.35
   6   0   7  141.25   10.54
   6   0   7  127.77    9.53
   6   0   7  155.94   12.85
   6   0   8   98.68    8.83
   6   0   8   94.26    9.62
   6   0   8  100.20    8.70
   6   0   8   97.99    7.90
   6   0   8  114.41   10.95
   6   0   9   43.51    5.47
   6   0   9   44.37    6.34
   6   0   9   54.95    7.33
   6   0  10  288.69   18.10
   6   0  10  254.80   18.92
   6   0  10  310.90   20.20
   6   0  11   16.38    3.51
   6   0  11   25.69    4.33
   6   1  -7   29.21    2.97
   6   1  -6   20.01    2.60
  -6  -1   6   17.89    3.83
  -6  -1   5    1.89    2.69
   6   1  -5   -0.17    0.58
  -6  -1   4   16.82    7.06
   6   1  -4   14.99    2.22
  -6  -1   3   20.25    3.57
   6   1  -3    9.76    1.77
  -6  -1   3   14.25    4.18
  -6  -1   2   13.41    2.80
   6   1  -2    7.71    1.78
  -6  -1   2   10.91    4.16
   6   1  -2   16.83    2.42
  -6  -1   1   20.64    3.11
  -6  -1   1   20.48    5.06
   6   1  -1   17.65    2.57
   6   1  -1   18.65    2.56
   6   1   0   24.76    2.89
   6   1   0   22.59    2.78
  -6  -1   0   25.48    3.14
   6   1   0   17.01    2.36
   6   1   1  191.51   11.40
  -6  -1  -1  186.85   18.20
   6   1   1  199.54   11.63
  -6  -1  -1  198.78   11.87
   6   1   1  170.59   11.00
   6   1   2    8.34    1.47
   6   1   2    7.56    1.36
   6   1   2    8.80    1.48
  -6  -1  -2    9.74    4.71
   6   1   2    7.17    1.41
   6   1   3   21.11    2.23
   6   1   3   20.60    3.05
   6   1   3   21.39    2.47
  -6  -1  -3   15.31    5.40
   6   1   3   24.13    2.64
   6   1   3   20.43    2.44
   6   1   4   37.92    3.55
   6   1   4   36.20    4.07
   6   1   4   43.53    3.87
   6   1   4   42.63    3.84
   6   1   4   38.07    4.94
   6   1   5  172.71   11.53
   6   1   5  174.88   10.70
   6   1   5  175.90   10.97
   6   1   5  159.79   12.49
   6   1   6  380.21   22.09
   6   1   6  370.12   20.79
   6   1   6  338.34   22.72
   6   1   6  392.85   22.01
   6   1   6  382.07   21.36
   6   1   6  395.54   24.01
   6   1   7   12.45    2.81
   6   1   7    7.91    2.79
   6   1   7   12.11    2.62
   6   1   7   15.18    2.57
   6   1   7   14.53    3.86
   6   1   8   56.59    6.04
   6   1   8   50.93    6.52
   6   1   8   45.10    5.41
   6   1   8   58.52    5.36
   6   1   8   60.37    7.60
   6   1   9    1.48    1.53
   6   1   9    2.72    2.00
   6   1   9    4.82    2.64
   6   1  10   -0.38    1.46
   6   1  10    4.09    2.58
   6   1  11   25.49    4.28
   6   1  11   28.82    4.76
   6   1  12    7.85    2.17
   6   2  -7    2.69    0.78
  -6  -2   7    2.65    0.97
   6   2  -6   17.68    2.27
  -6  -2   6   20.00    3.45
  -6  -2   5    0.97    2.08
   6   2  -5    2.86    1.01
   6   2  -4   37.17    3.67
  -6  -2   4   33.82    7.76
  -6  -2   4   43.07    5.67
   6   2  -3   47.06    4.12
  -6  -2   3   38.43    5.55
  -6  -2   3   47.75    6.07
  -6  -2   2    3.93    1.84
   6   2  -2    3.30    1.11
  -6  -2   2    3.42    2.60
  -6  -2   1    7.39    2.14
   6   2  -1    5.42    1.40
  -6  -2   1    1.09    2.12
   6   2  -1    5.38    1.40
   6   2   0   92.21    6.80
   6   2   0   86.30    6.85
  -6  -2   0  104.41   10.53
   6   2   0   99.84    7.09
  -6  -2   0  107.03    8.11
   6   2   1  181.28   11.20
   6   2   1  173.60   11.12
   6   2   1  199.69   11.68
  -6  -2  -1  202.43   12.38
   6   2   2  234.16   13.82
   6   2   2  240.93   13.79
  -6  -2  -2  250.80   21.08
   6   2   2  287.12   14.56
   6   2   2  230.07   13.83
   6   2   3  355.85   19.68
   6   2   3  386.11   20.11
   6   2   3  383.32   20.34
   6   2   3  358.54   19.91
   6   2   3  364.93   19.97
   6   2   4  355.24   21.16
   6   2   4  380.14   20.43
   6   2   4  359.56   20.44
   6   2   4  375.58   20.35
   6   2   4  384.82   20.30
   6   2   5   10.31    2.71
   6   2   5   11.26    2.25
   6   2   5    9.31    1.65
   6   2   5    6.50    1.63
   6   2   5    6.61    1.50
   6   2   6   14.61    2.74
   6   2   6   16.01    2.24
   6   2   6   15.58    2.51
   6   2   6   16.24    2.32
   6   2   6   15.44    3.41
   6   2   7  380.43   22.17
   6   2   7  390.63   21.47
   6   2   7  365.10   20.77
   6   2   7  357.77   23.55
   6   2   8   11.53    2.81
   6   2   8    5.16    2.68
   6   3  -6    2.12    0.74
   6   3  -5   16.17    2.09
  -6  -3   5   15.31    3.41
   6   3  -4   44.18    3.93
  -6  -3   4   44.41    7.21
  -6  -3   4   41.40    5.91
  -6  -3   3  233.70   22.98
  -6  -3   3  271.52   18.68
  -6  -3   2  157.60   24.02
  -6  -3   2  215.46   15.38
  -6  -3   1   11.19    2.84
   6   3  -1    5.54    1.37
   6   3   0    1.67    1.04
  -6  -3   0    0.30    0.85
   6   3   0    0.15    0.39
   6   3   1   36.65    3.52
   6   3   1   39.33    3.82
  -6  -3  -1   45.72    4.98
   6   3   2  390.07   22.08
   6   3   2  419.60   23.61
   6   3   2  435.73   22.43
   6   3   3  352.06   20.13
   6   3   3  373.36   20.39
   6   3   3  384.44   20.45
   6   3   3  388.77   21.08
   6   3   3  391.03   20.43
   6   3   4  258.53   14.90
   6   3   4  290.38   15.44
   6   3   4  271.26   15.59
   6   3   4  260.74   15.22
   6   3   4  267.79   15.13
   6   3   5  165.97   10.53
   6   3   5  178.51   10.92
   6   3   5  170.44   10.61
   6   3   6  212.17   14.38
   6   3   6  235.21   13.83
   6   3   6  248.96   14.33
   6   3   6  236.63   13.82
   6   3   7    8.80    2.24
   6   3   7   12.34    2.08
   6   3   7   10.59    2.01
   6   3   7   14.28    2.45
   6   4  -5    9.28    1.39
  -6  -4   5    8.05    2.38
   6   4  -4   57.17    4.35
  -6  -4   4   54.05    6.54
  -6  -4   4   42.71    6.08
  -6  -4   3    6.77    3.35
  -6  -4   3   10.65    3.03
  -6  -4   2    4.31    4.30
  -6  -4   2    3.82    2.26
  -6  -4   1   28.12    4.86
  -6  -4   1   23.31   13.80
   6   4   0   42.94    4.04
   6   4   0   58.24    5.75
  -6  -4   0   49.36    6.14
  -6  -4  -1   10.23    2.69
   6   4   1   10.35    2.12
   6   4   1   11.81    1.80
   6   4   2   11.34    1.93
   6   4   2    9.09    1.57
   6   4   2    9.48    2.56
   6   4   3   25.82    2.72
   6   4   3   26.40    2.89
   6   4   3   28.01    3.51
  -6  -4  -3   19.30    5.36
   6   4   3   28.83    2.97
   6   4   4  315.44   17.53
   6   4   4  317.88   17.71
   6   4   4  331.59   18.36
   6   4   4  310.08   17.51
   6   4   5   78.76    6.03
   6   4   5   89.06    6.54
   6   4   6  236.29   14.32
   6   4   6  254.91   14.83
   6   4   7  167.89   10.76
   6   4   7  170.41   11.12
  -6  -5   5    3.16    1.34
  -6  -5   4    1.20    1.36
  -6  -5   3   23.29    4.56
  -6  -5   2   34.70    5.61
  -6  -5   1    0.89    1.51
  -6  -5   0   66.21   20.75
  -6  -5   0   69.38    8.12
   6   5   0   75.56    7.35
   6   5   1   85.99    6.54
  -6  -5  -1  111.78    9.80
   6   5   1  100.95    7.80
   6   5   2  249.04   15.03
  -6  -5  -2  274.98   18.11
   6   5   2  276.25   15.73
   6   5   3  567.10   29.79
   6   5   3  569.01   29.68
   6   5   3  535.09   31.31
   6   5   4  305.26   17.46
   6   5   4  323.15   17.88
   6   5   4  328.57   18.73
  -6  -5  -4  266.67   26.80
   6   5   5  235.60   14.21
   6   5   5  258.90   15.01
  -6  -5  -5  221.18   23.96
   6   5   6    9.98    1.68
   6   5   6    6.39    1.63
   6   5   6    7.09    1.86
   6   5   6    7.31    1.51
  -6  -5  -6    4.91    3.89
   6   5   7   45.56    4.54
   6   5   7   50.38    4.19
   6   5   7   42.43    4.28
   6   5   7   44.58    4.54
  -6  -5  -7   52.72   12.60
   6   5   8    2.30    1.31
   6   5   8    1.43    1.13
  -6  -6   4    2.21    1.31
  -6  -6   3   -0.39    1.43
  -6  -6   2   16.42    3.90
  -6  -6   1   -0.49    1.27
   6   6   0   57.03    6.51
  -6  -6   0   44.35    6.70
  -6  -6  -1  100.96   22.61
   6   6   1  134.17    9.03
  -6  -6  -1  123.75   11.76
   6   6   1  138.82   10.21
   6   6   2  672.96   35.62
  -6  -6  -2  648.17   39.37
   6   6   2  695.29   36.37
   6   6   3    7.56    1.70
  -6  -6  -3    4.29    6.76
   6   6   4  319.62   16.81
   6   6   4  271.43   17.62
   6   6   4  267.66   16.15
   6   6   5   79.95    5.78
   6   6   5   78.88    5.92
   6   6   5   70.96    5.85
   6   6   5   78.78    6.54
   6   6   5   67.46    5.63
   6   6   6  169.53   10.48
   6   6   6  168.89   10.09
   6   6   6  142.43    9.98
   6   6   6  152.98   10.55
   6   6   6  147.47    9.97
  -6  -6  -6  149.19   24.20
   6   6   7   12.87    2.40
   6   6   7   14.71    2.16
   6   6   7   11.99    2.24
   6   6   7   14.82    2.56
   6   6   7   11.75    2.09
  -6  -6  -7    4.69    7.41
   6   6   8    0.21    1.15
   6   6   8    0.16    0.65
   6   6   8    0.92    1.06
   6   6   9   84.37    6.97
   6   6   9   94.85    6.77
  -6  -7   3    1.22    1.13
  -6  -7   3    0.29    0.90
  -6  -7   2    1.97    1.97
  -6  -7   2    1.64    1.40
  -6  -7   1   14.19    3.89
  -6  -7   0    1.03    1.49
  -6  -7  -1    3.09    2.10
   6   7   1    3.05    1.64
  -6  -7  -2   61.23    7.97
   6   7   2   66.52    6.02
   6   7   3   47.10    4.38
   6   7   3   50.99    4.73
   6   7   4  239.59   13.47
   6   7   4  201.75   12.80
   6   7   4  197.27   12.67
   6   7   5   34.91    3.61
   6   7   5   31.90    3.48
   6   7   5   38.80    3.60
   6   7   5   26.30    3.30
   6   7   5   29.28    3.24
   6   7   6   20.80    2.63
   6   7   6   18.10    2.72
   6   7   6   20.72    2.65
   6   7   6   21.42    3.16
   6   7   6   20.91    2.84
  -6  -7  -6   27.13   17.47
   6   7   7   35.29    3.62
   6   7   7   40.68    4.26
   6   7   7   39.25    3.89
   6   7   7   40.97    4.14
  -6  -7  -7   56.30   25.14
   6   7   8    0.95    0.74
   6   7   8    1.26    1.15
   6   7   8    0.84    0.72
   6   7   9    1.62    1.14
   6   7   9    2.02    0.95
   6   7  10    4.48    1.44
   6   7  10    5.59    1.41
  -6  -8   2    0.83    0.92
  -6  -8   2    0.28    0.72
  -6  -8   1    0.39    1.02
  -6  -8   0   -0.47    1.37
  -6  -8  -1   -0.52    1.33
  -6  -8  -2   -0.52    1.51
   6   8   3  119.74    8.15
   6   8   3   91.47    7.55
   6   8   4    7.35    1.73
   6   8   4    5.08    1.34
   6   8   4    3.69    1.30
   6   8   5    0.82    1.00
   6   8   5    2.11    1.13
   6   8   5    1.84    1.07
   6   8   6   52.73    4.66
   6   8   6   44.71    4.53
   6   8   6   56.72    4.69
   6   8   7    3.42    1.18
   6   8   7    4.19    1.44
   6   8   7    5.09    1.41
   6   8   8   12.44    2.06
   6   8   8   11.55    2.44
   6   8   8   15.43    2.40
   6   8   9   13.17    2.20
   6   8   9   13.15    2.47
   6   8   9   15.31    2.32
   6   8  10   22.32    2.75
   6   8  10   20.71    2.84
   6   8  10   21.37    2.71
   6   8  11    3.05    1.02
   6   9  -1    3.80    0.89
  -6  -9   1    1.45    0.99
   6   9   0    7.55    1.47
  -6  -9   0    8.53    2.47
   6   9   1    0.31    0.70
  -6  -9  -1    1.67    1.32
   6   9   2   51.00    4.64
   6   9   3    2.44    1.10
   6   9   4   23.36    2.98
   6   9   5   60.14    5.00
   6   9   5   53.29    4.59
   6   9   6    3.92    1.36
   6   9   6    2.93    1.24
   6   9   6    4.98    1.30
   6   9   7   29.31    3.28
   6   9   7   28.54    3.42
   6   9   7   36.77    3.53
   6   9   8   29.91    3.39
   6   9   8   34.94    3.77
   6   9   8   38.29    3.66
   6   9   9   28.20    3.15
   6   9   9   27.92    3.41
   6   9   9   28.81    3.13
   6   9  10    3.81    1.18
   6   9  10    4.71    1.31
   6   9  11    0.63    0.53
   6   9  12    3.35    0.87
   6  10   1    0.29    0.47
  -6 -10  -1    0.78    0.82
   6  10   2   11.40    1.73
   6  10   3    1.99    0.91
   6  10   4   18.06    2.35
   6  10   5    0.28    0.72
   6  10   6    0.99    0.71
   6  10   6    0.77    0.64
   6  10   7   -0.14    0.52
   6  10   7    0.27    0.51
   6  10   8    0.43    0.61
   6  10   8    0.53    0.64
   6  10   9    1.24    0.74
   6  10   9    2.04    0.82
   6  10  10    8.94    1.55
   6  10  10    8.92    1.53
   6  10  11    0.30    0.47
   6  11   3   12.90    1.52
  -6 -11  -3    8.13    2.03
   6  11   4    0.39    0.48
  -6 -11  -4   -0.29    1.11
   6  11   5    8.19    1.39
  -6 -11  -5    9.48    2.57
   6  11   6    7.83    1.34
  -6 -11  -6    4.92    1.88
   6  11   7    2.57    0.80
   6  11   8    9.72    1.50
   6  11   8    7.73    1.31
   6  11   9   -0.11    0.45
   6  11   9    0.56    0.55
   6  11  10   24.32    2.26
  -7   9   4    3.76    0.85
  -7   9   3    1.22    0.60
  -7   9   2   20.13    2.33
  -7   9   2   24.84    2.67
  -7   9   1    7.59    1.59
  -7   9   0   16.06    2.53
   7  -9   1    1.18    0.72
  -7   9  -1    3.92    1.45
  -7   8   5    2.54    0.77
  -7   8   4    0.96    0.60
  -7   8   3   36.54    3.47
  -7   8   3   36.99    3.67
  -7   8   2    3.68    1.20
  -7   8   2    2.31    0.94
  -7   8   1   21.91    2.96
  -7   8   1   15.64    2.42
   7  -8   0    0.34    0.66
  -7   8   0   -0.25    0.85
  -7   8  -1    3.10    1.66
   7  -8   1    1.21    0.89
  -7   8  -2    5.47    2.40
   7  -8   2    4.07    1.28
   7  -8   3    1.55    0.91
   7  -7  -6   12.60    1.74
  -7   7   5    0.89    0.64
  -7   7   4   40.31    3.78
  -7   7   3   19.61    2.68
  -7   7   3   28.19    3.31
  -7   7   2    7.53    1.82
  -7   7   2    6.98    1.64
  -7   7   1    1.65    1.01
  -7   7   1    1.44    0.92
  -7   7   0   67.09    6.52
   7  -7   0   51.46    5.22
   7  -7   1    4.96    1.56
   7  -7   2    0.63    0.94
   7  -7   3    0.58    0.83
   7  -7   4    1.32    0.85
   7  -7   5    1.21    0.77
   7  -6  -7    4.63    0.98
  -7   6   6   11.01    1.98
   7  -6  -6   11.17    1.75
   7  -6  -5   30.76    3.50
  -7   6   4   70.77    5.66
  -7   6   3   12.13    2.35
  -7   6   3   12.38    2.18
  -7   6   2   26.48    3.55
  -7   6   2   24.28    3.21
  -7   6   1    8.03    2.14
   7  -6   0   -0.22    0.76
  -7   6   0   -0.31    1.07
   7  -6   1   55.04    5.48
   7  -6   2   17.15    2.92
   7  -6   3  121.00    9.06
   7  -6   4   18.36    2.80
   7  -6   5   83.67    6.17
   7  -6   5   55.84    5.23
   7  -6   6    0.16    0.71
   7  -6   7    2.79    0.93
  -7   5   7    0.46    0.53
   7  -5  -7    0.22    0.40
  -7   5   6    4.39    1.49
   7  -5  -6    6.00    1.34
   7  -5  -5   51.61    4.90
  -7   5   4    2.61    1.01
  -7   5   3   21.06    2.92
  -7   5   3   28.69    3.67
  -7   5   2   21.06    3.18
  -7   5   2   17.75    2.75
  -7   5   1   57.25    5.89
   7  -5   0    0.66    0.84
  -7   5   0    0.31    0.99
   7  -5   1   81.08    7.03
   7  -5   2   85.61    7.39
   7  -5   3   13.14    2.58
   7  -5   4  152.04   10.27
   7  -5   4  124.79    9.66
   7  -5   5   17.13    2.74
   7  -5   5   21.37    3.16
   7  -5   6    3.70    1.41
   7  -5   7    1.54    1.06
   7  -5   8   -0.12    0.53
  -7   4   7    9.33    1.58
   7  -4  -7    8.44    1.47
  -7   4   6    0.23    0.89
   7  -4  -6    0.47    0.54
   7  -4  -5    1.98    1.04
   7  -4  -4    2.92    1.27
  -7   4   3    9.89    2.20
  -7   4   3    8.70    1.81
  -7   4   2   52.04    5.00
  -7   4   2   66.43    5.99
  -7   4   1  619.08   34.25
  -7   4   0   50.94    5.57
   7  -4   0   47.19    4.71
   7  -4   1  112.37    8.63
   7  -4   1  107.69    8.46
   7  -4   2    0.96    1.02
  -7   4  -2    0.85    2.45
   7  -4   2    0.47    0.68
   7  -4   3    1.91    1.20
   7  -4   3    3.83    1.45
   7  -4   4   15.59    2.66
   7  -4   4   15.69    2.84
   7  -4   5   60.93    5.81
   7  -4   5   76.80    6.61
   7  -4   6   61.03    5.78
   7  -4   7   22.32    3.59
   7  -4   7   27.81    3.52
   7  -4   8   10.86    2.40
   7  -4   8   11.57    2.07
  -7   3   7    9.06    1.56
   7  -3  -7    8.81    1.49
  -7   3   6   37.37    4.36
   7  -3  -6   42.94    4.03
   7  -3  -5   11.43    2.09
   7  -3  -4   45.12    4.72
  -7   3   3    3.59    1.44
  -7   3   3    2.61    1.03
   7  -3  -3    1.59    1.18
  -7   3   2    0.98    1.04
   7  -3  -2    0.53    0.90
  -7   3   1  202.04   13.37
  -7   3   0   29.94    8.03
  -7   3   0   40.63    4.64
   7  -3   0   40.96    4.09
   7  -3   1  164.33   10.98
   7  -3   1  156.95   10.78
   7  -3   2  252.98   15.46
   7  -3   2  248.94   15.42
   7  -3   3   67.37    6.10
   7  -3   3   69.94    6.18
   7  -3   4   54.44    5.40
   7  -3   4   58.10    5.57
   7  -3   4   53.32    7.03
   7  -3   4   52.40    5.20
   7  -3   5   21.49    3.13
   7  -3   5   28.80    4.35
   7  -3   5   26.11    3.59
   7  -3   5   22.17    4.88
   7  -3   6   10.81    2.91
   7  -3   6   10.89    2.45
   7  -3   6   12.17    4.01
   7  -3   7   88.20    8.18
   7  -3   7   93.45    7.58
   7  -3   7   85.92    9.35
   7  -3   8    7.86    2.36
   7  -3   8    6.84    1.88
   7  -3   8    7.31    2.86
   7  -3   9    1.51    1.18
   7  -3   9    1.08    0.82
   7  -3   9    1.52    1.56
  -7   2   7   19.63    2.26
   7  -2  -7   19.13    2.24
  -7   2   6    4.55    1.50
   7  -2  -6    4.31    1.22
   7  -2  -5   24.78    3.08
   7  -2  -4   29.01    3.39
   7  -2  -4   35.10    4.01
   7  -2  -3   37.60    4.30
  -7   2   3   47.26    5.17
   7  -2  -2  122.87    9.32
  -7   2   2  102.93   11.85
   7  -2  -2  108.02    8.44
  -7   2   2  115.83    8.89
   7  -2  -1   93.22    7.65
  -7   2   1   90.15    7.45
  -7   2   0  387.26   32.76
  -7   2   0  454.43   24.23
   7  -2   0  406.71   23.21
   7  -2   1  392.71   22.72
  -7   2  -1  350.17   32.74
  -7   2  -2    2.57    1.20
  -7   2  -2    1.02    2.63
   7  -2   2    1.50    1.00
   7  -2   3   38.65    4.21
   7  -2   4  107.77    9.06
   7  -2   4  127.82    8.84
   7  -2   4  108.78   10.58
   7  -2   4  109.80    8.36
   7  -2   5    1.75    2.64
   7  -2   5    1.64    1.16
   7  -2   5    1.22    1.67
   7  -2   5    2.90    1.63
   7  -2   6   69.33    7.21
   7  -2   6   67.96    7.04
   7  -2   6   70.52    6.36
   7  -2   6   61.68    8.08
   7  -2   7   30.75    4.77
   7  -2   7   35.94    4.31
   7  -2   7   27.18    5.45
   7  -2   8    3.64    2.07
   7  -2   8    1.66    2.27
   7  -2   8    5.76    1.76
   7  -2   8    2.21    2.28
   7  -2   9   13.60    2.86
   7  -2   9   13.28    2.39
   7  -2   9   11.45    3.46
   7  -2  10   26.13    3.40
   7  -2  10   26.94    4.19
   7  -1  -7   21.19    2.28
  -7   1   6   66.96    5.20
   7  -1  -6   64.86    5.02
  -7   1   5   58.48    6.12
   7  -1  -5   68.19    5.40
  -7   1   5   47.50    8.13
   7  -1  -4    0.68    0.69
  -7   1   3    3.91    1.69
   7  -1  -3    3.18    1.29
  -7   1   2  235.09   20.49
   7  -1  -2  258.51   16.19
   7  -1  -2  236.77   15.42
  -7   1   2  278.59   16.66
  -7   1   1    1.60    1.14
   7  -1  -1   -0.24    0.68
   7  -1  -1    0.20    0.64
   7  -1   0   82.40    6.72
  -7   1   0   81.94   12.23
   7  -1   0   76.29    6.37
  -7   1   0   73.44    6.34
   7  -1   0   77.85    6.02
  -7   1  -1  158.27   18.17
   7  -1   1  137.65    9.34
  -7   1  -1  135.57    9.26
   7  -1   1  125.56    8.79
  -7   1  -2  167.42   10.40
   7  -1   2  143.76    9.81
   7  -1   3  187.41   11.90
   7  -1   4    2.22    1.19
   7  -1   4    3.03    1.66
   7  -1   4    1.14    2.19
   7  -1   4    4.04    1.43
   7  -1   5   20.69    2.93
   7  -1   5   24.43    3.87
   7  -1   5   23.02    3.65
   7  -1   5   24.19    3.29
   7  -1   5   20.43    4.52
   7  -1   6    2.56    1.85
   7  -1   6    4.63    1.44
   7  -1   6    2.08    2.28
   7  -1   6    7.92    2.39
   7  -1   6    3.91    1.76
   7  -1   6    3.21    2.83
   7  -1   7   -0.33    1.54
   7  -1   7    2.18    2.24
   7  -1   7    0.24    1.16
   7  -1   7    2.41    2.56
   7  -1   8    4.46    2.22
   7  -1   8    6.91    3.00
   7  -1   8    6.02    1.93
   7  -1   8    6.65    3.19
   7  -1   9    0.58    1.28
   7  -1   9    2.00    2.30
   7  -1   9    2.99    1.40
   7  -1   9   -0.43    1.83
   7  -1  10   85.43    6.97
   7  -1  10   76.63    7.85
   7  -1  11    0.48    0.89
   7  -1  11    0.97    1.40
  -7   0   6    0.30    1.08
   7   0  -6    1.95    0.81
  -7   0   5    0.56    2.39
   7   0  -5   -0.15    0.56
  -7   0   4   20.81    3.72
   7   0  -4   17.35    2.41
  -7   0   3    2.01    1.56
   7   0  -3    3.34    1.27
  -7   0   2    2.96    1.75
   7   0  -2    2.74    1.22
   7   0  -2    3.06    1.21
  -7   0   2    5.58    3.81
  -7   0   1    3.48    1.41
  -7   0   1    3.82    2.96
   7   0  -1    3.98    1.41
   7   0  -1    4.21    1.38
   7   0   0  217.48   13.40
   7   0   0  204.19   13.13
  -7   0   0  214.57   13.41
   7   0   0  200.20   12.58
   7   0   1  182.17   11.42
  -7   0  -1  157.63   18.03
   7   0   1  187.30   11.51
   7   0   1  169.77   10.84
  -7   0  -1  171.16   11.31
   7   0   2    8.42    1.77
  -7   0  -2    9.90    1.87
   7   0   2    7.61    1.61
  -7   0  -2    5.90    3.81
   7   0   3  348.83   20.17
   7   0   3  358.56   19.15
   7   0   3  333.13   18.97
   7   0   4   -1.36    1.01
   7   0   4    1.44    1.44
   7   0   4   -0.18    0.70
   7   0   4   -0.18    0.94
   7   0   5  173.81   12.67
   7   0   5  196.90   12.00
   7   0   5  189.76   11.72
   7   0   5  185.58   12.00
   7   0   5  156.19   13.74
   7   0   6   62.99    6.43
   7   0   6   57.04    5.18
   7   0   6   38.01    6.09
   7   0   6   58.39    5.43
   7   0   6   51.38    7.06
   7   0   7   81.18    7.75
   7   0   7   57.80    7.74
   7   0   7   77.28    7.41
   7   0   7   79.74    6.81
   7   0   7   72.74    8.79
   7   0   8   37.77    5.15
   7   0   8   30.55    5.49
   7   0   8   39.94    4.59
   7   0   8   49.76    7.16
   7   0   9    3.62    1.91
   7   0   9    2.90    2.14
   7   0   9    2.93    1.40
   7   0   9    4.04    2.95
   7   0  10   24.23    3.70
   7   0  10   17.74    3.87
   7   0  10   23.39    4.66
   7   0  11    1.35    1.19
   7   0  11    1.66    1.55
   7   0  11    1.76    1.69
  -7  -1   6    1.95    1.21
   7   1  -6    1.60    0.65
  -7  -1   5    4.15    2.45
   7   1  -5    2.29    0.86
  -7  -1   4    5.29    2.05
  -7  -1   4    5.92    4.36
   7   1  -4    7.36    1.49
  -7  -1   3   63.11    7.11
   7   1  -2  330.49   20.39
   7   1  -2  378.95   20.79
  -7  -1   2  325.52   25.73
  -7  -1   2  387.25   22.84
   7   1  -1   37.39    4.13
   7   1  -1   39.83    4.22
  -7  -1   1   39.73    4.94
  -7  -1   1   46.81    8.13
   7   1   0   94.08    7.41
  -7  -1   0   93.26   11.10
   7   1   0  108.59    7.77
  -7  -1   0   95.54    7.95
   7   1   0  102.48    7.30
   7   1   1  448.73   24.96
   7   1   1  472.40   25.38
  -7  -1  -1  487.95   25.77
   7   1   1  426.09   24.53
   7   1   2   -0.15    0.80
   7   1   2    0.61    0.65
  -7  -1  -2   -0.86    2.20
   7   1   2    1.38    0.83
   7   1   3  418.92   22.14
   7   1   3  405.48   22.16
   7   1   3  396.66   21.89
   7   1   3  396.09   22.07
   7   1   4  673.60   37.29
   7   1   4  703.80   36.40
   7   1   4  710.19   36.45
   7   1   4  725.70   36.34
   7   1   5   15.74    2.40
   7   1   5   20.20    3.31
   7   1   5   18.75    2.63
   7   1   5   18.30    2.78
   7   1   5   13.66    3.62
   7   1   6  349.78   21.11
   7   1   6  351.70   19.79
   7   1   6  347.85   20.14
   7   1   6  333.54   19.64
   7   1   6  333.20   22.71
   7   1   7   22.06    3.81
   7   1   7   17.45    4.24
   7   1   7   24.62    3.14
   7   1   7   27.45    3.62
   7   1   7   24.08    5.03
   7   1   8    2.79    1.92
   7   1   8    2.47    2.49
   7   1   8    6.09    1.84
   7   1   8    6.54    3.19
   7   1   9   26.43    4.08
   7   1   9   17.52    4.24
   7   1   9   21.65    3.26
   7   1   9   27.31    5.14
   7   1  10   17.10    3.24
   7   1  10   13.26    3.33
   7   1  10   16.20    3.94
   7   1  11    3.92    2.07
   7   1  11    9.26    2.74
   7   2  -6   35.34    2.82
  -7  -2   5    4.49    2.16
   7   2  -5    7.74    1.33
  -7  -2   4    3.79    3.05
  -7  -2   4    4.24    1.88
  -7  -2   3    4.20    2.04
  -7  -2   2    1.51    1.61
  -7  -2   1   23.77    5.92
  -7  -2   1   22.71    4.02
   7   2  -1   25.37    3.15
   7   2   0   88.80    6.92
  -7  -2   0   98.42    8.30
  -7  -2   0   97.72   11.37
   7   2   0   89.18    6.98
   7   2   1   38.74    3.92
   7   2   1   50.19    4.60
  -7  -2  -1   37.97    4.55
   7   2   1   39.05    3.87
   7   2   2   47.28    4.15
   7   2   2   52.26    4.61
   7   2   2   39.31    3.95
   7   2   3  281.63   16.30
   7   2   3  304.73   16.71
   7   2   3  311.56   17.14
   7   2   3  288.76   16.50
   7   2   3  277.17   16.62
   7   2   4   15.47    2.28
   7   2   4   14.25    2.22
   7   2   4   14.56    2.37
   7   2   4   14.58    2.23
   7   2   5  243.91   16.10
   7   2   5  269.56   15.46
   7   2   5  268.90   15.67
   7   2   5  249.81   15.27
   7   2   5  259.07   15.18
   7   2   6   17.52    3.97
   7   2   6   20.10    3.39
   7   2   6   24.16    3.01
   7   2   6   17.78    2.87
   7   2   6   21.16    2.91
   7   2   7   13.06    2.88
   7   2   7   14.49    2.38
   7   2   7   13.91    2.41
   7   2   7   18.70    2.95
   7   2   7   13.97    3.94
   7   2   8   59.67    6.24
   7   2   8   54.86    5.05
   7   2   8   57.22    5.57
   7   2   8   61.31    7.59
   7   2   9    1.18    1.31
   7   2   9   -1.28    1.98
  -7  -3   5   -0.23    0.90
  -7  -3   4    4.68    2.40
  -7  -3   4    6.34    2.14
  -7  -3   3   15.06    5.52
  -7  -3   3   14.37    3.44
  -7  -3   2   51.35    6.57
  -7  -3   1  151.52   12.49
   7   3   0  133.09    9.24
   7   3   0  134.32    9.68
  -7  -3   0  156.54   11.68
   7   3   1   15.14    2.29
  -7  -3  -1   11.86    2.72
   7   3   1   11.48    2.00
   7   3   2   -0.47    0.76
   7   3   2    0.15    0.43
   7   3   3  326.13   19.37
   7   3   3  372.22   19.79
   7   3   3  366.74   20.44
   7   3   3  359.89   19.81
   7   3   4   17.80    2.40
   7   3   4   13.98    2.00
   7   3   4   18.82    2.49
   7   3   4   15.84    2.34
   7   3   4   14.59    2.39
   7   3   5   25.10    3.12
   7   3   5   25.20    3.26
   7   3   5   28.71    3.25
   7   3   5   25.70    3.00
   7   3   6   74.60    6.19
   7   3   6   81.73    6.65
   7   3   6   80.19    6.34
   7   3   7    2.36    1.82
   7   3   7    1.10    0.92
   7   3   7    2.20    1.13
   7   3   7    2.19    1.46
   7   3   8   24.96    3.86
   7   3   8   28.57    3.73
   7   3   8   21.42    2.98
  -7  -4   4   10.41    2.44
  -7  -4   3    8.14    3.16
  -7  -4   3   11.01    2.99
  -7  -4   2   29.84    7.22
  -7  -4   2   27.41    4.88
  -7  -4   1   91.20    9.29
  -7  -4   0   -0.39    1.13
   7   4   0    1.66    1.05
   7   4   0   -0.17    0.53
  -7  -4  -1   17.22    3.51
   7   4   1   17.45    2.48
   7   4   1   22.89    2.97
   7   4   2   74.83    5.81
   7   4   2   66.92    6.90
  -7  -4  -2   84.44    7.95
   7   4   2   81.76    6.19
   7   4   3  118.28    8.10
   7   4   3  130.15    9.27
   7   4   3  125.59    8.40
   7   4   4    1.43    0.92
   7   4   4    1.03    0.68
   7   4   4    2.05    1.04
   7   4   4    1.18    1.14
  -7  -4  -4    1.55    2.44
   7   4   5  197.42   12.29
   7   4   5  197.82   12.66
   7   4   5  199.19   12.15
   7   4   6    2.92    1.31
   7   4   6    2.28    1.26
   7   4   7  228.24   14.13
   7   4   7  231.94   14.62
   7   4   8  130.22    9.24
   7   4   8  139.90    9.83
  -7  -5   4   14.14    2.74
  -7  -5   3    4.06    1.97
  -7  -5   2    4.24    2.19
  -7  -5   1    0.44    1.27
   7   5   0    9.04    2.16
  -7  -5   0    5.59    2.31
   7   5   1    0.21    0.87
   7   5   1    0.17    0.57
  -7  -5  -1    0.83    1.30
   7   5   2  163.05   10.54
  -7  -5  -2  172.17   13.39
   7   5   2  163.68   10.79
   7   5   3   11.16    2.04
   7   5   3    9.36    1.77
   7   5   3    7.64    2.27
   7   5   4   38.28    3.83
   7   5   4   33.02    4.06
  -7  -5  -4   33.62    8.82
   7   5   4   36.33    3.71
   7   5   5   33.80    3.69
   7   5   5   31.52    3.88
  -7  -5  -5   20.85    7.15
   7   5   5   32.47    3.44
   7   5   6  272.51   15.46
   7   5   6  253.77   15.83
   7   5   6  281.52   16.51
  -7  -5  -6  240.84   27.96
   7   5   7  248.61   15.38
   7   5   7  255.01   15.88
   7   5   8  174.90   11.26
   7   5   8  160.77   10.94
   7   5   8  164.77   11.36
   7   5   9   40.21    4.26
   7   5   9   38.43    4.04
  -7  -6   3    0.57    1.21
  -7  -6   3    0.58    0.84
  -7  -6   2    3.55    1.84
  -7  -6   1    1.32    1.39
   7   6   0    0.77    0.81
  -7  -6   0    0.46    1.46
   7   6   1   -0.23    0.82
  -7  -6  -1    1.39    1.58
   7   6   2    6.61    1.73
  -7  -6  -2    4.48    2.25
   7   6   3  249.84   15.04
   7   6   4   42.56    4.90
  -7  -6  -4   47.99   13.47
   7   6   4   47.92    4.45
   7   6   5    0.83    1.03
   7   6   5    0.36    0.88
   7   6   5   -0.36    0.81
   7   6   5    0.46    1.24
  -7  -6  -5   -3.67    5.77
   7   6   6   29.46    3.53
   7   6   6   31.64    3.25
   7   6   6   22.33    3.04
   7   6   6   22.28    3.35
   7   6   6   20.31    2.83
  -7  -6  -6   32.14   12.07
   7   6   7    8.88    2.10
   7   6   7   11.61    2.05
   7   6   7   11.97    2.33
   7   6   7   13.36    2.61
   7   6   8    2.09    1.38
   7   6   8    1.61    1.02
   7   6   8    1.58    1.24
   7   6   8    2.67    1.43
   7   6   9   85.27    6.90
   7   6   9   83.55    6.63
  -7  -7   2   -0.27    0.92
  -7  -7   2    0.30    0.86
  -7  -7   1    3.93    1.83
  -7  -7   0   22.38    4.57
  -7  -7  -1    1.44    1.51
   7   7   1    0.22    0.74
   7   7   2    2.45    1.18
  -7  -7  -2    1.49    1.69
   7   7   3    1.14    0.95
   7   7   3    1.60    1.06
   7   7   4   54.97    4.80
   7   7   4   42.12    4.33
   7   7   5  105.98    7.42
   7   7   5  100.75    7.41
   7   7   6  275.34   16.52
   7   7   6  288.85   16.18
   7   7   6  263.04   16.89
   7   7   7    1.43    1.26
   7   7   7    0.83    0.83
   7   7   7    2.02    1.42
   7   7   8   29.40    3.54
   7   7   8   19.05    2.74
   7   7   9   12.92    2.42
   7   7   9   12.86    2.13
   7   7  10   13.04    2.28
   7   8  -1    0.72    0.55
  -7  -8   1   -0.55    0.87
  -7  -8   0    2.20    1.42
   7   8   1   13.28    2.19
  -7  -8  -1   10.85    3.22
   7   8   2   57.03    5.12
   7   8   3   64.76    5.35
   7   8   3   50.86    4.92
   7   8   4   14.50    2.33
   7   8   4   18.52    2.62
   7   8   4   14.38    2.13
   7   8   5  136.19    8.69
   7   8   5  126.12    8.36
   7   8   5  113.06    8.42
   7   8   6    7.00    1.56
   7   8   6    9.22    1.95
   7   8   6    8.10    1.71
   7   8   7    0.15    0.54
   7   8   7    0.19    0.91
   7   8   7    0.16    0.85
   7   8   8   31.03    3.77
   7   8   8   36.39    3.65
   7   8   9   22.82    3.07
   7   8   9   21.06    2.71
   7   8  10   27.27    3.12
   7   8  10   22.69    2.71
   7   9   1    3.14    1.01
  -7  -9  -1    0.31    0.88
   7   9   2    0.83    0.76
   7   9   3   13.06    2.06
   7   9   4   16.66    2.34
   7   9   4   18.06    2.23
   7   9   5   18.04    2.39
   7   9   5   17.11    2.26
   7   9   6   47.71    4.09
   7   9   6   40.55    3.83
   7   9   7   46.60    4.16
   7   9   7   51.34    4.54
   7   9   7   49.62    4.26
   7   9   8   11.27    1.82
   7   9   8    7.31    1.73
   7   9   8    9.90    1.74
   7   9   9   13.42    1.96
   7   9   9   16.11    2.40
   7   9   9   12.72    1.97
   7   9  10   18.65    2.50
   7   9  10   20.75    2.41
   7   9  11   21.86    2.30
   7  10   2    0.60    0.48
   7  10   3    9.85    1.48
   7  10   4    5.37    1.19
   7  10   5    1.32    0.71
   7  10   6   11.28    1.75
   7  10   6   13.83    1.82
   7  10   7    0.25    0.50
   7  10   7    0.12    0.52
   7  10   8    0.12    0.51
   7  10   8    0.23    0.59
   7  10   9    0.11    0.49
   7  10   9   -0.11    0.47
   7  10  10    2.21    0.77
   7  10  10    1.39    0.71
   7  10  11   13.70    1.60
   7  11   5    0.25    0.37
  -7 -11  -5   -0.25    0.91
   7  11   6   14.65    1.71
   7  11   7    0.18    0.39
   7  11   8    0.45    0.44
   7  11   8    0.64    0.46
   7  11   9    5.76    1.05
   7  11   9    5.65    0.98
  -8   8   3    1.35    0.67
   8  -8  -3    2.40    0.88
  -8   8   2    9.94    1.67
  -8   8   1   18.00    2.44
  -8   8   0    1.22    0.94
   8  -8   1    4.96    1.21
  -8   8  -1    7.96    2.21
   8  -8   2   -0.12    0.54
   8  -7  -4    3.07    0.97
  -8   7   3   12.29    1.98
  -8   7   3   12.89    1.74
  -8   7   2    0.51    0.66
  -8   7   1   10.31    2.11
  -8   7   0    0.26    0.75
   8  -7   1    3.28    1.23
  -8   7  -1    4.49    1.99
   8  -7   2   -0.34    0.81
  -8   7  -2   -0.59    1.69
   8  -7   3   11.81    2.02
   8  -7   4    8.44    1.54
  -8   6   5    1.71    0.94
   8  -6  -5    2.42    0.76
   8  -6  -5    1.02    0.66
   8  -6  -4   31.18    3.45
  -8   6   3    6.73    1.64
  -8   6   3    6.12    1.34
   8  -6  -3    6.16    1.66
  -8   6   2   28.15    3.50
  -8   6   1    0.96    0.98
  -8   6   0   61.27    6.51
   8  -6   1   16.11    2.69
  -8   6  -1   25.06    4.53
   8  -6   2   16.33    2.73
  -8   6  -2   16.16    4.89
   8  -6   3    2.39    1.15
   8  -6   4    6.64    1.65
   8  -6   5    1.12    0.79
   8  -6   6    8.62    1.51
  -8   5   6    0.43    0.52
   8  -5  -6   -0.09    0.34
   8  -5  -5    0.12    0.38
   8  -5  -4    2.42    1.08
   8  -5  -3   81.16    6.86
  -8   5   3   81.56    6.82
  -8   5   2    2.35    1.21
  -8   5   1   75.89    7.01
  -8   5   0   67.58    7.04
   8  -5   1    9.63    2.19
  -8   5  -1    8.41    2.88
   8  -5   2   -0.48    0.92
  -8   5  -2    3.24    2.36
   8  -5   3   45.40    4.84
   8  -5   4    0.63    0.89
   8  -5   5   33.26    3.74
   8  -5   5   31.61    3.59
   8  -5   6   12.77    2.21
   8  -5   7    3.55    1.12
  -8   4   6    2.49    0.90
   8  -4  -6    2.77    0.78
   8  -4  -5    3.95    1.08
   8  -4  -4   32.76    3.48
   8  -4  -4   45.63    4.35
   8  -4  -3   22.80    3.28
  -8   4   3   27.62    3.66
  -8   4   2    0.75    0.97
   8  -4  -2   -0.50    0.91
  -8   4   1  198.79   13.67
  -8   4   0   34.91    4.75
   8  -4   1    0.23    0.83
  -8   4  -1   11.53    3.02
   8  -4   2    3.68    1.56
  -8   4  -2    5.85    2.65
   8  -4   3   11.25    2.42
   8  -4   4   38.32    4.40
   8  -4   5   12.73    2.39
   8  -4   5   11.06    2.37
   8  -4   6  152.66   10.50
   8  -4   7   12.50    2.23
   8  -4   8    2.26    1.02
  -8   3   6    0.63    0.60
   8  -3  -6    0.20    0.33
  -8   3   5    0.72    1.07
   8  -3  -5    1.17    0.67
   8  -3  -4   11.13    1.89
   8  -3  -4   14.82    2.43
   8  -3  -3   27.79    3.64
  -8   3   3   31.17    4.08
   8  -3  -2   56.08    5.64
  -8   3   2   55.19    5.71
   8  -3  -1  178.26   12.50
  -8   3   1  186.12   12.80
  -8   3   0  216.35   14.76
  -8   3  -1  492.07   26.18
   8  -3   1  407.95   23.50
   8  -3   2   17.28    2.90
  -8   3  -2   25.53    4.35
   8  -3   3  100.60    8.09
   8  -3   4   47.97    5.00
   8  -3   5    0.87    1.01
   8  -3   5    4.87    1.83
   8  -3   6  120.93   10.09
   8  -3   6  135.17    9.67
   8  -3   7    4.95    1.92
   8  -3   7    5.11    1.68
   8  -3   7    3.90    2.42
   8  -3   8   19.53    3.25
   8  -3   8   22.98    3.02
   8  -3   9    0.35    0.78
   8  -3   9    0.40    0.73
  -8   2   6   14.52    1.89
   8  -2  -6   15.65    1.81
  -8   2   5   -0.21    0.66
   8  -2  -5    0.51    0.54
   8  -2  -4    0.19    0.61
   8  -2  -3   24.84    3.40
  -8   2   3   34.15    4.41
   8  -2  -2  230.86   14.95
  -8   2   2  240.92   15.66
   8  -2  -1  883.58   46.46
  -8   2   1  858.41   46.78
   8  -2   0  153.35   11.03
  -8   2   0  158.09   11.29
   8  -2   1  300.55   17.86
  -8   2  -1  317.86   18.58
   8  -2   1  285.00   17.32
  -8   2  -2  145.26   10.51
   8  -2   2  121.53    9.02
   8  -2   3    0.89    1.11
  -8   2  -3   -1.08    2.79
   8  -2   4   16.14    2.77
   8  -2   4   20.24    3.14
   8  -2   5   11.55    2.34
   8  -2   5   13.71    3.16
   8  -2   5   12.52    2.61
   8  -2   6    3.27    1.89
   8  -2   6    2.69    1.61
   8  -2   6    3.73    3.00
   8  -2   7   92.57    8.66
   8  -2   7  107.40    8.14
   8  -2   7   90.12    9.79
   8  -2   8    3.63    1.84
   8  -2   8    7.21    1.94
   8  -2   8    1.62    2.28
   8  -2   9   26.80    3.67
   8  -2   9   26.26    3.13
   8  -2   9   17.10    3.72
   8  -2  10    8.71    1.80
   8  -1  -6   29.92    2.56
  -8   1   5   12.17    2.01
  -8   1   5    9.64    2.92
   8  -1  -5   10.39    1.62
  -8   1   4   -0.72    2.60
   8  -1  -3  239.26   15.24
  -8   1   3  261.69   16.80
  -8   1   2    1.75    1.36
   8  -1  -2    5.09    1.59
  -8   1   1    8.61    2.23
   8  -1  -1    3.44    1.46
   8  -1   0  409.00   23.80
   8  -1   0  412.71   23.90
  -8   1   0  422.45   24.15
   8  -1   1   49.48    4.88
  -8   1  -1   43.45    4.79
   8  -1   1   48.45    4.53
  -8   1  -2  231.00   14.42
   8  -1   2  210.24   13.39
   8  -1   3  389.43   21.88
   8  -1   3  399.38   21.97
   8  -1   4  139.39   10.90
   8  -1   4  130.95    9.94
  -8   1  -4  137.63   21.63
   8  -1   4  164.66   10.56
   8  -1   4  149.61   10.19
   8  -1   5    2.94    1.39
   8  -1   5    2.79    2.04
   8  -1   5    3.66    1.42
   8  -1   5    3.07    1.67
   8  -1   6    2.35    1.94
   8  -1   6    2.94    1.61
   8  -1   6    2.40    2.90
   8  -1   7   22.92    4.26
   8  -1   7   24.83    3.60
   8  -1   7   26.23    5.50
   8  -1   8   73.22    7.38
   8  -1   8   85.92    6.97
   8  -1   8   63.63    8.30
   8  -1   9    0.26    1.31
   8  -1   9   -0.20    0.86
   8  -1   9    0.39    1.94
   8  -1  10   19.48    2.92
   8  -1  10   16.45    3.34
  -8   0   5    3.65    1.91
  -8   0   4   33.61    7.15
  -8   0   4   39.47    4.96
  -8   0   3    2.33    1.49
   8   0  -2   48.63    4.90
  -8   0   2   51.65    5.99
   8   0  -1  139.25   10.00
  -8   0   1  139.40   10.81
   8   0   0   99.87    8.06
   8   0   0  111.95    8.45
  -8   0   0  113.55    8.86
   8   0   1    1.43    1.05
  -8   0  -1    0.46    0.84
   8   0   1    1.22    0.91
   8   0   1    0.44    0.84
   8   0   2   -0.18    0.91
  -8   0  -2   -0.23    0.72
  -8   0  -2    0.92    2.64
   8   0   2    0.21    0.70
   8   0   3  175.38   11.05
   8   0   3  168.30   11.04
   8   0   4   -0.20    0.92
   8   0   4    1.03    0.88
  -8   0  -4   -1.46    4.20
   8   0   4    0.61    0.94
   8   0   5   29.69    4.42
   8   0   5   33.98    3.96
   8   0   5   35.35    4.18
   8   0   5   34.44    3.96
   8   0   6    8.78    2.75
   8   0   6    8.71    2.01
   8   0   6   14.57    2.75
   8   0   6    7.52    3.34
   8   0   7    1.01    1.74
   8   0   7    1.72    1.30
   8   0   7    1.72    1.21
   8   0   7    0.99    2.46
   8   0   8   62.03    6.74
   8   0   8   67.15    6.14
   8   0   8   61.89    5.48
   8   0   8   48.96    7.31
   8   0   9   -0.29    1.43
   8   0   9    0.22    1.10
   8   0   9    0.42    1.89
   8   0  10   19.08    3.06
   8   0  10    8.89    2.93
   8   0  11   17.82    2.58
  -8  -1   5   37.12    4.64
  -8  -1   4    5.50    3.17
  -8  -1   3   52.81    6.25
  -8  -1   2  104.40    9.48
   8   1  -1  305.83   18.56
  -8  -1   1  316.72   20.15
  -8  -1   0   32.48    7.11
   8   1   0   42.87    4.40
   8   1   0   38.09    4.38
  -8  -1   0   39.09    4.83
  -8  -1  -1   21.46    3.31
   8   1   1   21.01    2.97
   8   1   1   17.49    2.86
   8   1   1   25.84    3.08
   8   1   2  166.75   10.89
   8   1   2  177.00   11.42
  -8  -1  -2  174.61   11.81
   8   1   2  159.43   10.82
   8   1   3   27.30    3.20
  -8  -1  -3   18.11    5.99
   8   1   3   24.07    3.16
   8   1   4   15.08    2.56
   8   1   4   21.64    2.99
   8   1   4   20.84    2.85
   8   1   4   23.76    3.09
   8   1   5  241.31   14.51
   8   1   5  231.79   14.52
   8   1   5  228.65   14.28
   8   1   5  219.57   14.11
   8   1   6   10.07    2.83
   8   1   6    9.19    2.08
   8   1   6    7.86    2.16
   8   1   6    8.32    2.05
   8   1   7   74.07    7.62
   8   1   7   86.08    7.11
   8   1   7   75.30    6.51
   8   1   7   69.50    8.87
   8   1   8    2.25    1.89
   8   1   8    0.99    0.99
   8   1   8    1.46    1.33
   8   1   8    1.91    2.30
   8   1   9    2.97    1.72
   8   1   9    5.26    1.87
   8   1   9    6.10    2.81
   8   1  10   -0.51    1.27
   8   1  10    1.81    1.98
   8   1  11    4.91    2.03
  -8  -2   5    3.82    1.29
  -8  -2   4   29.33    5.04
  -8  -2   3   -0.70    1.10
  -8  -2   3    0.78    3.48
  -8  -2   2  273.60   18.76
  -8  -2   1    6.08    2.27
  -8  -2   0    1.29    1.10
   8   2   0    2.95    1.11
   8   2   1   14.31    2.35
  -8  -2  -1   17.10    3.15
   8   2   1   17.90    2.58
   8   2   2    0.17    0.71
  -8  -2  -2    0.28    0.81
   8   2   2    0.18    0.60
   8   2   3   27.86    3.15
   8   2   3   28.83    3.40
   8   2   4  140.13    9.54
   8   2   4  141.49    9.71
   8   2   4  143.12    9.46
   8   2   4  130.67    9.37
   8   2   5    7.13    1.81
   8   2   5    6.26    1.65
   8   2   5    4.62    1.62
   8   2   5    5.42    1.71
   8   2   6   27.73    3.55
   8   2   6   34.93    4.11
   8   2   6   29.39    3.61
   8   2   7   45.21    5.45
   8   2   7   41.57    4.40
   8   2   7   42.72    4.77
   8   2   7   40.30    4.36
   8   2   8   22.21    3.85
   8   2   8   21.16    2.99
   8   2   8   23.16    3.42
   8   2   8   19.03    4.39
   8   2   9   20.01    3.68
   8   2   9   24.74    3.52
   8   2   9   22.65    4.71
   8   2  10   29.08    4.09
  -8  -3   4    0.51    1.03
  -8  -3   3   16.50    4.35
  -8  -3   3   18.42    3.58
  -8  -3   2   -0.95    4.07
  -8  -3   2    0.37    1.35
  -8  -3   1   22.25    4.20
  -8  -3   0   12.47    3.07
   8   3   1   32.99    3.71
  -8  -3  -1   41.26    5.27
   8   3   1   36.81    3.89
   8   3   2    1.42    1.05
  -8  -3  -2    1.33    1.21
   8   3   2    0.88    0.68
   8   3   3  103.28    7.51
   8   3   3  113.50    8.36
   8   3   3  103.12    7.72
   8   3   4   15.69    2.51
   8   3   4   14.32    2.37
   8   3   4   16.45    2.47
   8   3   4   12.81    2.47
   8   3   5   71.82    6.13
   8   3   5   73.96    6.31
   8   3   5   72.84    6.07
   8   3   5   70.76    5.96
   8   3   6    0.21    0.70
   8   3   6    0.20    1.00
   8   3   6    1.13    1.27
   8   3   7   10.10    2.09
   8   3   7    9.35    2.04
   8   3   7    9.03    2.35
   8   3   8   72.02    6.28
   8   3   8   85.15    7.09
   8   3   9   26.47    3.30
   8   3   9   29.08    3.81
  -8  -4   3    5.01    1.86
  -8  -4   2    0.54    2.07
  -8  -4   2   -0.37    1.26
  -8  -4   1    7.28    2.54
  -8  -4   0   16.69    3.59
  -8  -4  -1   70.99    7.62
   8   4   1   67.93    5.80
   8   4   2   93.74    7.17
  -8  -4  -2  101.09    9.41
   8   4   2  100.54    7.40
   8   4   3   88.56    6.80
   8   4   3   96.57    7.81
   8   4   3   92.68    7.09
   8   4   4   72.47    6.05
   8   4   4   90.40    6.55
   8   4   4   90.17    7.12
   8   4   4   85.34    6.60
   8   4   5   81.81    6.42
   8   4   5   78.19    6.65
   8   4   5   82.84    6.43
   8   4   6    2.22    1.31
   8   4   6    2.75    1.62
   8   4   7    1.85    1.21
   8   4   7    1.67    1.63
   8   4   8  119.92    8.87
   8   4   8  132.72    9.57
   8   4   9   24.17    3.14
   8   4   9   22.88    3.44
  -8  -5   3    1.89    1.26
  -8  -5   3    1.53    1.19
  -8  -5   2    6.08    2.15
  -8  -5   1   24.94    4.41
  -8  -5   0    0.79    1.35
   8   5   1   38.95    4.10
  -8  -5  -1   35.22    5.42
   8   5   2   11.56    2.13
  -8  -5  -2   11.90    3.17
   8   5   3   46.45    4.51
   8   5   4   66.31    6.23
   8   5   4   70.94    5.85
   8   5   5    1.11    0.95
   8   5   5    2.07    1.03
   8   5   5    2.05    1.41
  -8  -5  -5    2.20    2.84
   8   5   6  106.02    7.40
   8   5   6  112.59    8.23
   8   5   6  106.58    8.43
   8   5   7  166.61   11.21
   8   5   7  166.58   11.68
   8   5   8    0.20    1.05
   8   5   8   -0.20    1.04
   8   5   8   -0.24    1.33
   8   5   9   53.67    4.96
   8   5   9   43.79    4.53
   8   5   9   52.51    5.12
  -8  -6   2   13.95    2.85
  -8  -6   1   37.37    5.31
  -8  -6   0    4.72    2.16
   8   6   1    1.32    0.91
  -8  -6  -1    3.30    1.76
   8   6   2    9.47    1.96
   8   6   3   33.54    3.70
   8   6   4   11.36    2.13
   8   6   5    7.92    1.81
   8   6   5    8.08    1.90
   8   6   5    6.52    1.95
   8   6   6   47.14    4.77
   8   6   6   49.23    4.36
   8   6   6   47.75    4.75
   8   6   6   46.51    5.08
   8   6   7  201.51   12.35
   8   6   7  172.83   11.20
   8   6   7  185.19   12.11
   8   6   7  179.93   12.43
   8   6   8  118.55    8.78
   8   6   8  117.13    8.65
   8   6   8  124.96    9.24
   8   6   9   33.65    3.82
   8   6   9   31.76    3.67
   8   6  10   22.39    2.89
  -8  -7   1    0.27    0.77
  -8  -7   0    1.03    1.17
  -8  -7  -1    3.14    1.83
   8   7   2   54.38    4.83
   8   7   3   14.27    2.33
   8   7   4   43.97    4.32
   8   7   5  161.69   10.00
   8   7   5  146.86   10.09
   8   7   6   88.76    6.91
   8   7   6   86.34    6.46
   8   7   7  100.90    7.75
   8   7   7  100.58    7.18
   8   7   7  103.51    8.16
   8   7   8   17.46    2.81
   8   7   8   17.63    2.39
   8   7   8   16.14    2.84
   8   7   9    0.73    0.91
   8   7   9   -0.14    0.62
   8   7  10    0.96    0.92
   8   8   1   14.64    1.87
  -8  -8  -1    8.01    2.35
   8   8   2    1.62    0.83
   8   8   2    0.33    0.57
   8   8   3    6.00    1.46
   8   8   3    6.03    1.31
   8   8   4   93.34    6.29
   8   8   4   80.23    6.42
   8   8   5   10.50    1.99
   8   8   5   11.91    1.89
   8   8   6   38.14    3.63
   8   8   7   28.65    3.42
   8   8   7   30.60    3.21
   8   8   8   17.85    2.68
   8   8   8   19.65    2.48
   8   8   9    0.66    0.95
   8   8   9    0.93    0.78
   8   8  10    1.87    1.03
   8   8  10    1.48    0.74
   8   8  11    2.27    0.88
   8   9   2    4.30    0.96
   8   9   3   21.83    2.32
   8   9   4    2.36    0.90
   8   9   4    2.45    0.86
   8   9   5    1.47    0.77
   8   9   5    0.23    0.47
   8   9   6   10.45    1.66
   8   9   7    5.54    1.45
   8   9   7    8.30    1.49
   8   9   8    1.61    1.04
   8   9   8    1.10    0.70
   8   9   9   18.19    2.36
   8   9   9   17.42    2.10
   8   9  10   14.61    2.00
   8   9  10   15.89    1.88
   8  10   4   20.91    2.02
   8  10   5    4.41    0.95
   8  10   5    5.10    0.98
   8  10   6   22.09    2.30
   8  10   6   27.55    2.43
   8  10   7    4.26    0.98
   8  10   8    1.21    0.63
   8  10   9    1.05    0.57
  -9   7   2    3.76    1.02
   9  -7  -2    4.66    1.13
  -9   7   1   15.04    2.18
  -9   7   0   10.14    2.12
  -9   7  -1   34.06    4.56
   9  -7   2    0.46    0.57
  -9   6   3    0.40    0.52
   9  -6  -3    1.12    0.72
  -9   6   2   14.13    2.15
   9  -6  -2   13.53    2.18
  -9   6   1   19.58    2.79
   9  -6  -1   12.98    2.18
  -9   6   0   19.23    3.25
   9  -6   1   15.67    2.29
  -9   6  -1    9.66    2.78
   9  -6   2    0.48    0.86
  -9   6  -2    0.58    1.68
   9  -6   3    0.30    0.73
   9  -6   4   -0.13    0.58
   9  -5  -4   27.42    2.82
   9  -5  -3   38.62    3.73
  -9   5   3   29.14    3.41
  -9   5   2   21.22    2.96
   9  -5  -2   21.97    3.01
  -9   5   1   -0.23    0.85
   9  -5  -1    0.63    0.72
  -9   5   0   10.19    2.51
   9  -5   0    9.62    2.03
   9  -5   1   16.20    2.57
  -9   5  -1   19.66    4.07
   9  -5   2   -0.40    0.77
  -9   5  -2   -0.63    1.80
   9  -5   3   20.01    2.89
   9  -5   4   16.05    2.43
   9  -5   5    0.14    0.66
   9  -5   6   34.45    3.15
   9  -4  -4    3.77    1.07
  -9   4   3    7.95    1.92
   9  -4  -3   10.33    1.95
  -9   4   2   18.40    2.97
   9  -4  -2   17.90    2.87
   9  -4  -1   43.13    4.89
  -9   4   1   53.37    5.40
  -9   4   0    3.82    1.64
   9  -4   0    2.54    1.34
  -9   4  -1   31.96    5.14
   9  -4   1   30.65    3.69
   9  -4   2    0.22    0.91
  -9   4  -2    1.68    1.91
   9  -4   3    8.69    2.03
   9  -4   4    0.41    1.02
   9  -4   5   65.24    5.52
   9  -4   6   14.64    2.36
   9  -4   7   18.32    2.41
   9  -4   7   20.11    2.31
   9  -3  -4    1.39    0.74
  -9   3   3    4.36    1.54
   9  -3  -3    2.72    1.10
  -9   3   2    4.73    1.61
   9  -3  -2    2.60    1.23
   9  -3  -1  100.11    8.15
  -9   3   1  103.23    8.53
  -9   3   0    4.94    1.83
   9  -3   0    2.92    1.37
   9  -3   1    0.41    0.75
  -9   3  -1    0.37    1.25
   9  -3   1    0.45    0.72
   9  -3   2    8.46    2.02
  -9   3  -2    9.53    2.89
   9  -3   3   -0.24    0.96
   9  -3   4   16.52    2.84
   9  -3   5   17.46    2.70
   9  -3   6    0.82    1.09
   9  -3   7   11.65    2.17
   9  -3   7   12.02    2.04
   9  -3   8   10.81    2.13
   9  -3   8   14.06    2.08
  -9   2   4   -0.20    0.72
  -9   2   3    0.50    0.92
   9  -2  -3    0.89    0.73
  -9   2   2   29.36    4.10
   9  -2  -2   36.17    4.04
  -9   2   1    7.87    2.20
   9  -2  -1    7.54    1.93
  -9   2   0   22.28    3.63
   9  -2   0   23.60    3.47
   9  -2   1   55.55    5.53
  -9   2  -1   62.96    6.53
   9  -2   1   55.52    5.25
   9  -2   2   16.22    2.67
  -9   2  -2   12.86    3.03
   9  -2   3   59.36    5.70
   9  -2   4   48.12    5.02
   9  -2   5    2.98    1.35
   9  -2   5    2.38    1.54
   9  -2   6    2.29    1.31
   9  -2   6    3.79    1.99
   9  -2   6    6.48    1.84
   9  -2   7    0.54    1.31
   9  -2   7    1.88    1.23
   9  -2   7    2.41    1.22
   9  -2   8    0.23    1.07
   9  -2   8    0.18    0.83
   9  -2   8    1.43    0.88
   9  -2   9    0.88    0.93
   9  -2   9    0.14    0.67
  -9   1   4    0.36    1.31
  -9   1   3   12.01    2.61
   9  -1  -2   60.50    5.50
  -9   1   2   59.65    6.19
   9  -1  -1  115.49    8.84
  -9   1   1  115.25    9.45
  -9   1   0   11.91    2.75
   9  -1   0   13.29    2.57
   9  -1   1    5.78    1.61
  -9   1  -1    4.23    1.72
   9  -1   1    6.33    1.75
  -9   1  -2  108.81    8.91
   9  -1   2   92.07    7.50
   9  -1   3   14.67    2.63
   9  -1   4   49.08    4.99
   9  -1   5  133.03    9.63
   9  -1   5  119.25    9.04
   9  -1   6    1.81    1.10
   9  -1   6    3.20    1.79
   9  -1   6    0.98    1.26
   9  -1   6    2.82    1.40
   9  -1   7    2.17    1.74
   9  -1   7    1.60    1.35
   9  -1   7    0.82    1.15
   9  -1   8    1.36    1.27
   9  -1   8    1.03    1.09
   9  -1   8    0.17    0.79
   9  -1   9   12.28    2.49
   9  -1   9   13.78    2.28
  -9   0   4    0.68    1.52
  -9   0   3   18.83    3.23
  -9   0   3   12.52    4.90
  -9   0   2   19.85    3.54
   9   0  -1   57.22    5.35
  -9   0   1   45.79    5.49
  -9   0   0   25.76    3.92
   9   0   0   25.37    3.54
   9   0   1   11.80    2.25
  -9   0  -1   17.46    3.07
   9   0   1   18.77    2.92
   9   0   2    0.59    0.91
  -9   0  -2    1.14    1.22
   9   0   2    1.57    0.96
   9   0   3    1.45    1.13
   9   0   4  344.47   19.93
   9   0   4  341.95   20.07
   9   0   5    2.75    1.34
   9   0   5    3.28    1.45
   9   0   5    2.77    1.38
   9   0   6    2.63    1.27
   9   0   6   -0.25    1.18
   9   0   6    0.22    1.05
   9   0   7   -0.98    1.79
   9   0   7   -0.24    1.20
   9   0   7    0.21    1.03
   9   0   8   21.54    3.81
   9   0   8   27.65    3.36
   9   0   8   22.79    3.36
   9   0   9    1.50    1.37
   9   0   9    2.14    1.23
   9   0  10   15.68    2.28
  -9  -1   4    1.89    1.25
  -9  -1   3   64.73    9.16
  -9  -1   3   70.31    6.67
  -9  -1   2   28.32    4.23
  -9  -1   1   92.18    8.42
  -9  -1   0   41.19    5.14
   9   1   1   11.04    2.12
  -9  -1  -1   11.70    2.60
  -9  -1  -2   18.88    3.36
   9   1   2   23.68    3.08
   9   1   3    0.20    0.89
   9   1   4  232.09   14.37
   9   1   4  238.51   14.71
   9   1   5  106.04    8.31
   9   1   5  108.62    8.09
   9   1   5  104.04    8.02
   9   1   6    2.98    1.32
   9   1   6    4.81    1.76
   9   1   6    3.44    1.50
   9   1   7  125.81    9.37
   9   1   7  113.67    8.73
   9   1   8    5.16    1.66
   9   1   8    6.07    1.96
   9   1   9   14.32    2.29
   9   1   9   18.86    2.91
   9   1  10   20.77    2.77
  -9  -2   3   -0.41    1.58
  -9  -2   3    0.52    0.89
  -9  -2   2   34.17    4.64
  -9  -2   1   -0.33    1.19
  -9  -2   0  267.12   17.74
   9   2   1   12.04    2.21
  -9  -2  -1   12.58    2.80
  -9  -2  -2  101.54    8.75
   9   2   2   93.01    7.20
   9   2   3  160.80   10.72
   9   2   4   15.60    2.49
   9   2   4   13.42    2.50
   9   2   4   14.39    2.39
   9   2   5    4.83    1.57
   9   2   5    6.02    1.85
   9   2   5    4.20    1.54
   9   2   6  112.65    8.75
   9   2   6  122.28    8.67
   9   2   6  107.80    8.18
   9   2   7    8.66    2.08
   9   2   7    5.80    1.87
   9   2   8  177.01   11.59
   9   2   8  174.79   12.04
   9   2   9   -0.18    0.84
   9   2   9   -0.22    0.97
   9   2  10   15.24    2.45
  -9  -3   3    3.41    1.60
  -9  -3   3    1.87    1.13
  -9  -3   2   15.52    4.28
  -9  -3   2   17.02    3.29
  -9  -3   1   13.28    3.01
  -9  -3   0   17.79    3.42
  -9  -3  -1   42.01    5.39
   9   3   1   36.56    3.89
  -9  -3  -2   18.52    3.58
   9   3   2   20.21    2.82
   9   3   3   27.89    3.39
   9   3   4  105.32    8.24
   9   3   4  111.44    8.10
   9   3   5   54.18    5.51
   9   3   5   60.79    5.46
   9   3   5   70.01    5.79
   9   3   6    5.30    1.54
   9   3   6    5.59    1.73
   9   3   6    6.07    1.92
   9   3   7  154.33   10.58
   9   3   7  132.28    9.87
   9   3   8   22.82    3.16
   9   3   8   24.29    3.55
   9   3   9    2.15    1.20
   9   3   9    3.27    1.54
   9   3  10    6.23    1.63
  -9  -4   2    5.64    1.75
  -9  -4   1   41.94    5.31
  -9  -4   0    1.63    1.33
  -9  -4  -1   43.60    5.79
   9   4   1   52.25    4.67
   9   4   2    1.07    0.83
   9   4   3   20.40    2.87
   9   4   4  192.98   13.04
   9   4   4  207.62   12.83
   9   4   5   39.42    4.22
   9   4   5   41.98    4.62
   9   4   5   42.46    4.34
   9   4   6    1.48    0.99
   9   4   6    2.03    1.31
   9   4   6    1.87    1.41
   9   4   7   -0.21    1.00
   9   4   7   -0.48    1.31
   9   4   8   29.99    3.65
   9   4   8   31.59    3.99
   9   4   9    4.46    1.46
   9   4   9    3.59    1.36
   9   4   9    3.01    1.47
   9   4  10    1.27    1.12
  -9  -5   1   -0.28    0.81
  -9  -5   0    3.82    1.75
  -9  -5  -1   53.05    6.35
   9   5   1   61.13    5.04
   9   5   2   -0.17    0.69
   9   5   3   90.98    6.92
   9   5   4  116.31    8.83
   9   5   4  117.12    8.40
   9   5   5   31.23    3.45
   9   5   5   21.39    3.32
   9   5   5   27.15    3.36
   9   5   6   31.67    3.68
   9   5   6   29.47    3.86
   9   5   6   30.92    3.51
   9   5   7   24.70    3.33
   9   5   7   24.94    3.31
   9   5   7   22.74    3.48
   9   5   8    0.19    1.03
   9   5   8   -0.39    0.91
   9   5   8    0.23    1.11
   9   5   9    1.61    1.15
   9   5   9    2.11    1.18
   9   5   9    0.84    1.21
   9   5  10   19.70    2.54
  -9  -6   0    6.79    2.05
  -9  -6  -1   -0.32    0.93
   9   6   1    0.14    0.58
   9   6   2    2.18    1.01
   9   6   3   28.02    3.22
   9   6   4    6.59    1.63
   9   6   5   15.06    2.46
   9   6   5   19.03    2.47
   9   6   6   19.07    2.69
   9   6   6   19.37    2.91
   9   6   6   19.28    2.47
   9   6   6   23.03    3.37
   9   6   7    4.48    1.62
   9   6   7    3.85    1.42
   9   6   7    6.16    1.87
   9   6   8   22.83    3.09
   9   6   8   25.82    3.30
   9   6   8   23.88    3.41
   9   6   9   64.87    5.52
   9   6   9   71.99    5.99
   9   6  10   14.30    2.17
  -9  -7  -1    9.41    2.29
   9   7   2    0.13    0.57
   9   7   3    6.13    1.47
   9   7   4    1.13    0.98
   9   7   4    1.50    0.88
   9   7   5   -0.50    0.81
   9   7   5    0.14    0.63
   9   7   6    8.22    1.73
   9   7   6    5.43    1.58
   9   7   6    6.97    1.45
   9   7   7    0.53    0.89
   9   7   7    2.30    0.92
   9   7   8    0.34    0.86
   9   7   8    0.13    0.54
   9   7   9    0.79    0.90
   9   7  10    2.68    1.00
   9   8   2    2.69    0.73
   9   8   3   -0.10    0.52
   9   8   4   -0.22    0.55
   9   8   5    0.12    0.55
   9   8   5    0.29    0.73
   9   8   6    0.37    0.61
   9   8   7   27.05    3.04
   9   8   7   28.69    2.85
   9   8   8   -0.15    0.86
   9   8   8    0.58    0.65
   9   8   9    1.08    0.84
   9   8   9    2.06    0.73
   9   8  10    0.23    0.65
   9   9   4    9.66    1.30
   9   9   5   42.93    3.35
   9   9   6    1.84    0.72
   9   9   7   29.10    2.68
   9   9   8   20.88    2.34
   9   9   8   20.64    2.15
   9   9   9   -0.85    0.71
   9   9   9    0.26    0.42
  10  -5  -2    6.38    1.28
 -10   5   1    7.43    1.72
  10  -5  -1   11.86    1.83
 -10   5   0   18.17    3.03
 -10   5  -1    0.35    1.27
  10  -5   2    8.42    1.62
  10  -5   3    0.27    0.60
  10  -5   4    4.68    1.18
  10  -5   4    4.81    1.17
  10  -4  -2   18.58    2.42
 -10   4   2   20.98    2.73
 -10   4   1   13.10    2.42
  10  -4  -1   16.25    2.37
 -10   4   0    6.81    2.09
  10  -4   0    7.13    1.68
 -10   4  -1   31.25    5.07
  10  -4   2    8.01    1.74
  10  -4   3    1.55    0.94
  10  -4   4    4.90    1.40
  10  -4   4    5.18    1.37
  10  -4   5    3.04    1.00
  10  -4   5    2.80    1.04
  10  -4   6   14.22    1.88
 -10   3   3    4.34    1.18
 -10   3   2   16.10    2.63
  10  -3  -2   19.53    2.52
 -10   3   1    1.98    1.23
  10  -3  -1    0.56    0.72
  10  -3   0   38.70    4.24
 -10   3   0   49.26    5.55
  10  -3   1    3.96    1.25
 -10   3  -1    3.80    1.90
 -10   3  -2   42.23    6.47
  10  -3   2   31.02    3.65
  10  -3   3    1.19    0.99
  10  -3   4   10.07    2.04
  10  -3   4    6.91    1.67
  10  -3   5   41.30    3.96
  10  -3   5   37.48    3.83
  10  -3   6    1.58    0.80
  10  -3   6    2.30    1.08
  10  -3   7   13.30    1.97
  10  -3   7   14.68    1.95
 -10   2   3    0.17    0.55
 -10   2   3    0.14    0.59
 -10   2   2    2.69    1.20
  10  -2  -1   39.16    4.06
 -10   2   1   33.88    4.42
  10  -2   0   65.20    5.84
 -10   2   0   67.51    6.82
  10  -2   1   14.97    2.43
 -10   2  -1   21.89    3.95
  10  -2   1   20.95    2.94
 -10   2  -2   80.98    8.56
  10  -2   2   70.24    6.02
  10  -2   3    0.83    1.00
  10  -2   4    4.06    1.49
  10  -2   4    4.87    1.50
  10  -2   5    0.92    1.03
  10  -2   5    0.18    0.90
  10  -2   6    0.31    0.64
  10  -2   6    0.94    0.87
  10  -2   6   -0.17    0.84
  10  -2   7    1.48    1.06
  10  -2   7    1.75    0.94
  10  -2   8    2.11    0.92
  10  -2   8    1.76    0.79
 -10   1   3   -0.18    0.62
 -10   1   2   40.14    4.55
 -10   1   1    4.06    1.61
 -10   1   0    2.68    1.49
  10  -1   0    3.56    1.30
  10  -1   1  202.05   12.46
 -10   1  -1  183.84   13.55
  10  -1   1  174.70   11.47
  10  -1   2   10.30    2.09
 -10   1  -2   12.35    2.96
  10  -1   3   16.50    2.71
  10  -1   4   89.15    6.97
  10  -1   4   91.20    7.22
  10  -1   5    3.91    1.41
  10  -1   5    4.42    1.48
  10  -1   6   48.45    4.81
  10  -1   6   42.35    4.38
  10  -1   6   47.55    4.42
  10  -1   7   15.98    2.59
  10  -1   7   16.39    2.43
  10  -1   8   10.37    1.94
  10  -1   8   12.38    1.95
  10  -1   9   18.25    2.27
 -10   0   3    7.04    2.23
 -10   0   2    0.71    0.91
 -10   0   1   15.98    3.00
 -10   0   0    2.03    1.30
 -10   0  -1  161.14   11.78
  10   0   1  144.70    9.72
  10   0   2    8.09    1.82
 -10   0  -2    8.82    2.57
  10   0   3    6.75    1.82
  10   0   4   53.61    5.12
  10   0   5    0.20    0.99
  10   0   5    0.97    0.94
  10   0   6  109.77    8.23
  10   0   6  101.73    7.72
  10   0   6   99.92    7.55
  10   0   7   15.62    2.76
  10   0   7   16.55    2.57
  10   0   8    0.64    0.85
  10   0   8    1.67    1.19
  10   0   9   38.03    3.49
  10   0   9   43.50    3.97
 -10  -1   2    2.78    1.34
 -10  -1   2    2.06    2.57
 -10  -1   1   13.96    2.78
 -10  -1   0   25.34    3.92
  10   1   1   17.67    2.47
 -10  -1  -1   17.83    3.29
  10   1   2    0.88    0.85
  10   1   3   52.10    4.90
  10   1   4   31.30    3.65
  10   1   5    0.20    0.91
  10   1   5    0.95    0.95
  10   1   6    3.72    1.39
  10   1   6    5.16    1.75
  10   1   6    5.67    1.63
  10   1   7    3.82    1.43
  10   1   7    5.93    1.80
  10   1   8   22.15    2.91
  10   1   8   20.60    3.01
  10   1   9    1.41    0.85
  10   1   9    1.71    1.03
  10   1  10    0.26    0.62
 -10  -2   2    3.45    2.05
 -10  -2   2    6.27    1.69
 -10  -2   1   15.24    2.89
 -10  -2   0    1.97    1.31
 -10  -2  -1   21.49    3.61
  10   2   1   22.81    2.77
  10   2   2   41.31    4.06
  10   2   3    5.65    1.54
  10   2   4   29.88    3.56
  10   2   5    1.34    1.02
  10   2   5    3.12    1.27
  10   2   5    0.85    1.06
  10   2   6   16.12    2.61
  10   2   6   23.71    3.06
  10   2   6   20.64    3.10
  10   2   7   30.33    3.84
  10   2   7   28.25    3.44
  10   2   8    5.60    1.56
  10   2   8    4.78    1.58
  10   2   9    4.15    1.26
  10   2   9    3.10    1.28
  10   2  10    0.29    0.72
 -10  -3   1   18.05    4.24
 -10  -3   1   19.63    3.11
 -10  -3   0    1.61    1.20
 -10  -3  -1   82.58    7.58
  10   3   2    0.97    0.90
  10   3   3   55.75    4.94
  10   3   4   87.49    6.81
  10   3   5   49.88    4.68
  10   3   5   48.26    4.94
  10   3   5   60.63    5.14
  10   3   6   39.35    4.11
  10   3   6   39.16    4.39
  10   3   6   38.05    4.00
  10   3   7   73.39    6.11
  10   3   7   72.94    6.37
  10   3   8   43.03    4.43
  10   3   8   53.90    5.11
  10   3   9    6.68    1.60
  10   3   9    8.26    1.90
  10   3  10    0.37    0.65
  10   3  10    0.15    0.71
 -10  -4   1   23.99    3.25
 -10  -4   0   56.74    5.68
 -10  -4  -1   27.17    3.90
  10   4   2    0.15    0.58
  10   4   3    4.42    1.32
  10   4   4    0.53    0.90
  10   4   5   15.41    2.41
  10   4   5   13.92    2.47
  10   4   6    7.41    1.73
  10   4   6    5.54    1.54
  10   4   6    7.88    2.00
  10   4   7    2.94    1.30
  10   4   7    1.72    1.36
  10   4   8    0.89    1.05
  10   4   8    1.24    1.09
  10   4   8    0.62    1.00
  10   4   9   27.74    3.06
  10   4   9   21.33    2.78
  10   4   9   28.53    3.34
  10   4  10    7.94    1.56
  10   4  10    8.90    1.76
 -10  -5   0    1.30    0.88
 -10  -5  -1   10.00    2.29
  10   5   2    3.48    1.06
  10   5   3    0.75    0.88
  10   5   4   -0.33    0.86
  10   5   5    3.71    1.31
  10   5   5    3.86    1.40
  10   5   6   16.96    2.43
  10   5   6   18.21    2.69
  10   5   6   15.13    2.35
  10   5   6   16.82    2.76
  10   5   7    1.08    1.01
  10   5   7    1.04    0.97
  10   5   7    0.62    0.92
  10   5   8    0.68    0.88
  10   5   8    1.51    1.08
  10   5   8    1.99    1.23
  10   5   9    0.45    0.83
  10   5   9   -0.30    0.78
  10   5   9    0.18    0.80
  10   5  10   -0.15    0.78
  10   6   2    2.79    0.92
  10   6   3    9.93    1.68
  10   6   4    4.51    1.31
  10   6   4    3.84    1.05
  10   6   5   30.77    2.96
  10   6   5   24.80    3.01
  10   6   6   38.62    3.78
  10   6   6   35.69    3.57
  10   6   7    7.69    1.76
  10   6   7   10.41    2.10
  10   6   8   15.43    2.34
  10   6   8   15.59    2.46
  10   6   9    0.71    0.75
  10   6   9    0.82    0.82
  10   6  10    5.24    1.24
  10   6  10    5.37    1.33
  10   7   3    0.45    0.46
  10   7   3    0.11    0.56
  10   7   4    7.99    1.48
  10   7   4    6.27    1.21
  10   7   5   37.97    3.22
  10   7   5   32.22    3.24
  10   7   6    0.13    0.67
  10   7   6   -0.33    0.57
  10   7   7   27.11    2.99
  10   7   7   30.39    2.78
  10   7   8    1.08    0.94
  10   7   9   11.31    1.81
  10   7  10    2.02    0.82
  10   8   5    0.34    0.43
  10   8   6   48.63    3.67
  10   8   7    7.53    1.23
  10   8   8    8.41    1.42
  10   8   8    4.98    0.98
  10   8   9   12.37    1.66
 -11   3   0   17.96    3.05
 -11   3  -1   33.42    5.16
  11  -3   2    0.61    0.71
  11  -3   3   69.98    5.27
  11  -3   4    3.44    1.06
  11  -3   5    6.38    1.26
  11  -3   5    6.18    1.23
 -11   2   1   38.58    4.11
 -11   2   0    4.63    1.73
 -11   2  -1   39.07    5.55
  11  -2   2   14.83    2.10
  11  -2   3   10.26    1.86
  11  -2   4    1.21    0.85
  11  -2   5   16.97    2.25
  11  -2   5   18.18    2.30
  11  -2   6   23.16    2.46
  11  -2   6   21.60    2.37
 -11   1   1   -0.20    0.79
 -11   1   0   10.38    2.46
 -11   1  -1    2.72    1.58
  11  -1   2   29.30    3.10
  11  -1   3    2.26    1.10
  11  -1   4   11.19    2.02
  11  -1   5    3.17    1.21
  11  -1   5    3.32    1.12
  11  -1   6    6.76    1.43
  11  -1   6    6.34    1.41
  11  -1   7   10.13    1.65
 -11   0   1    3.39    1.34
 -11   0   0   63.46    6.20
 -11   0  -1   12.62    2.84
  11   0   2   10.92    1.86
  11   0   3   -0.16    0.65
  11   0   4   16.75    2.47
  11   0   5    8.30    1.76
  11   0   5    8.01    1.67
  11   0   6    0.14    0.70
  11   0   6    0.44    0.76
  11   0   7    1.62    0.89
  11   0   7    0.78    0.73
  11   0   8    0.57    0.67
  11   0   8   -0.13    0.65
 -11  -1   0    0.71    0.96
 -11  -1  -1    0.56    0.96
  11   1   2   11.05    1.83
  11   1   3   -0.16    0.66
  11   1   4    6.08    1.54
  11   1   5    8.59    1.84
  11   1   6    3.26    1.20
  11   1   6    3.98    1.24
  11   1   7    4.80    1.29
  11   1   7    4.98    1.47
  11   1   8   -0.13    0.68
  11   1   8   -0.15    0.74
 -11  -2   0    0.21    0.68
 -11  -2  -1   23.81    3.56
  11   2   2    3.58    1.07
  11   2   3   13.71    2.10
  11   2   4    3.31    1.19
  11   2   5    8.59    1.81
  11   2   6    0.45    0.84
  11   2   6    1.21    0.89
  11   2   6    0.91    0.81
  11   2   7   12.67    2.04
  11   2   7   11.05    2.07
  11   2   8    6.01    1.42
  11   2   8    3.36    1.29
  11   2   9   33.81    3.09
  11   2   9   31.52    3.19
 -11  -3  -1   25.09    3.45
  11   3   2    9.21    1.56
  11   3   3    7.43    1.50
  11   3   4    3.10    1.13
  11   3   5    8.32    1.71
  11   3   6   17.65    2.40
  11   3   6   18.91    2.47
  11   3   6   17.64    2.61
  11   3   7   48.32    4.26
  11   3   7   47.06    4.50
  11   3   8    9.98    1.79
  11   3   8    7.31    1.55
  11   3   8    8.33    1.76
  11   3   9    0.36    0.61
  11   3   9    1.67    0.88
  11   4   2   32.23    2.88
  11   4   3    2.17    0.84
  11   4   4    9.97    1.75
  11   4   5   27.72    2.99
  11   4   6   42.46    4.11
  11   4   6   43.87    3.89
  11   4   7   26.75    2.99
  11   4   7   24.09    2.75
  11   4   7   20.09    2.81
  11   4   8   34.25    3.36
  11   4   8   30.54    3.17
  11   4   8   34.69    3.55
  11   4   9    7.11    1.40
  11   4   9    7.84    1.45
  11   4   9    8.01    1.58
  11   5   3    3.10    0.88
  11   5   4   21.82    2.46
  11   5   5   21.10    2.44
  11   5   6    1.49    0.85
  11   5   6    1.96    0.98
  11   5   7   22.04    2.60
  11   5   7   17.40    2.47
  11   5   8   16.78    2.21
  11   5   8   14.01    2.17
  11   5   9   33.74    3.00
  11   5   9   26.74    2.92
  11   6   4    0.10    0.55
  11   6   5    4.42    1.13
  11   6   6   35.29    3.11
  11   6   7   99.36    6.53
  11   6   8    1.78    0.87
  12   0   4   10.56    1.61
  12   0   5    1.64    0.73
  12   1   3    4.64    1.05
  12   1   4   -0.55    0.68
  12   1   5    9.64    1.53
  12   2   4    5.91    1.22
  12   2   5    5.14    1.15
  12   2   6   -0.29    0.57
  12   3   4   11.34    1.59
  12   3   5    1.61    0.75
  12   3   6    1.75    0.79
   0   0   0    0.00    0.00


TITL 122_auto in P-1
REM P-1 (#2 in standard setting)
CELL 1.54184  10.101907  10.718041  11.190536  64.8727  69.5619  83.1675
ZERR    4.00   0.000227   0.000287   0.000225   0.0025   0.0021   0.0020
LATT  1
SFAC C H N O
UNIT 44.00 40.00 4.00 4.00
TREF
HKLF 4
END
_computing_structure_solution     'SHELXT 2014/5 (Sheldrick, 2014)'
;
_shelx_hkl_checksum              23996
_olex2_submission_special_instructions 'No special instructions were received'
_oxdiff_exptl_absorpt_empirical_details
;
Empirical correction (ABSPACK) includes:
- Absorption correction using spherical harmonics
- Frame scaling
;
_oxdiff_exptl_absorpt_empirical_full_max 17.942
_oxdiff_exptl_absorpt_empirical_full_min 0.404
loop_
_space_group_symop_operation_xyz
'x, y, z'
'-x, -y, -z'
loop_
_atom_site_label
_atom_site_type_symbol
_atom_site_fract_x
_atom_site_fract_y
_atom_site_fract_z
_atom_site_U_iso_or_equiv
_atom_site_adp_type
_atom_site_occupancy
_atom_site_site_symmetry_order
_atom_site_calc_flag
_atom_site_refinement_flags_posn
_atom_site_refinement_flags_adp
_atom_site_refinement_flags_occupancy
_atom_site_disorder_assembly
_atom_site_disorder_group
O1 O 0.42766(16) 0.06621(15) 0.83645(14) 0.0639(4) Uani 1 1 d . . . . .
O2 O 0.3066(2) 0.0521(2) 0.7080(2) 0.0951(6) Uani 1 1 d . . . . .
O3 O 0.43377(14) 0.35339(14) 0.64424(12) 0.0526(4) Uani 1 1 d . . . . .
O4 O 0.32941(15) 0.55397(15) 0.91984(14) 0.0609(4) Uani 1 1 d . . . . .
O5 O 0.39317(14) 0.35564(15) 1.04843(12) 0.0573(4) Uani 1 1 d . . . . .
C1 C 0.1297(2) 0.3912(2) 0.8094(2) 0.0582(5) Uani 1 1 d . . . . .
H1 H 0.151422 0.490413 0.768028 0.070 Uiso 1 1 calc R . . . .
C2 C -0.0073(2) 0.3417(3) 0.9289(3) 0.0726(6) Uani 1 1 d . . . . .
H2 H -0.056837 0.386809 0.985356 0.087 Uiso 1 1 calc R . . . .
C3 C -0.0441(2) 0.2235(3) 0.9389(3) 0.0757(7) Uani 1 1 d . . . . .
H3 H -0.125016 0.170039 1.003360 0.091 Uiso 1 1 calc R . . . .
C4 C 0.0674(2) 0.1898(3) 0.8282(3) 0.0703(6) Uani 1 1 d . . . . .
H4 H 0.038681 0.123830 0.801573 0.084 Uiso 1 1 calc R . . . .
C5 C 0.2013(2) 0.1539(2) 0.8736(2) 0.0565(5) Uani 1 1 d . . . . .
H5 H 0.171794 0.089653 0.972585 0.068 Uiso 1 1 calc R . . . .
C6 C 0.24588(18) 0.29452(19) 0.86201(18) 0.0477(4) Uani 1 1 d . . . . .
H6 H 0.237287 0.286949 0.954841 0.057 Uiso 1 1 calc R . . . .
C7 C 0.1106(2) 0.3346(3) 0.7129(2) 0.0701(6) Uani 1 1 d . . . . .
H7A H 0.197645 0.337138 0.638577 0.084 Uiso 1 1 calc R . . . .
H7B H 0.036348 0.378675 0.674311 0.084 Uiso 1 1 calc R . . . .
C8 C 0.39084(17) 0.35419(17) 0.75944(16) 0.0415(4) Uani 1 1 d . . . . .
C9 C 0.48825(17) 0.41979(18) 0.79959(16) 0.0419(4) Uani 1 1 d . . . . .
C10 C 0.60504(19) 0.3135(2) 0.83193(19) 0.0534(5) Uani 1 1 d . . . . .
H10A H 0.657021 0.342284 0.874804 0.064 Uiso 1 1 calc R . . . .
H10B H 0.560026 0.224212 0.898802 0.064 Uiso 1 1 calc R . . . .
C11 C 0.7073(2) 0.2994(2) 0.7035(2) 0.0549(5) Uani 1 1 d . . . . .
H11 H 0.752822 0.380778 0.631037 0.066 Uiso 1 1 calc R . . . .
C12 C 0.7416(2) 0.1857(2) 0.67933(19) 0.0550(5) Uani 1 1 d . . . . .
C13 C 0.6783(2) 0.0439(2) 0.7833(2) 0.0674(6) Uani 1 1 d . . . . .
H13A H 0.749596 -0.023476 0.773523 0.081 Uiso 1 1 calc R . . . .
H13B H 0.654345 0.039266 0.876997 0.081 Uiso 1 1 calc R . . . .
C14 C 0.5485(3) 0.0042(2) 0.7688(3) 0.0745(7) Uani 1 1 d . . . . .
H14A H 0.559397 0.036451 0.670625 0.089 Uiso 1 1 calc R . . . .
H14B H 0.534964 -0.095311 0.812171 0.089 Uiso 1 1 calc R . . . .
C15 C 0.3150(2) 0.0878(2) 0.7932(2) 0.0635(5) Uani 1 1 d . . . . .
C16 C 0.40372(17) 0.44033(19) 0.93258(18) 0.0445(4) Uani 1 1 d . . . . .
C17 C 0.3673(3) 0.6813(2) 0.7945(3) 0.0725(6) Uani 1 1 d . . . . .
H17A H 0.430320 0.736326 0.802930 0.087 Uiso 1 1 calc R . . . .
H17B H 0.282439 0.732767 0.788209 0.087 Uiso 1 1 calc R . . . .
C18 C 0.4375(2) 0.6619(2) 0.6616(2) 0.0637(5) Uani 1 1 d . . . . .
H18A H 0.479069 0.749140 0.585932 0.076 Uiso 1 1 calc R . . . .
H18B H 0.367693 0.630914 0.637815 0.076 Uiso 1 1 calc R . . . .
C19 C 0.5508(2) 0.5573(2) 0.67836(19) 0.0538(5) Uani 1 1 d . . . . .
H19A H 0.623842 0.591027 0.696113 0.065 Uiso 1 1 calc R . . . .
H19B H 0.593788 0.544054 0.592540 0.065 Uiso 1 1 calc R . . . .
C20 C 0.8471(2) 0.1970(2) 0.5412(2) 0.0559(5) Uani 1 1 d . . . . .
C21 C 0.9575(2) 0.2934(3) 0.4692(2) 0.0668(6) Uani 1 1 d . . . . .
H21 H 0.967001 0.351671 0.508185 0.080 Uiso 1 1 calc R . . . .
C22 C 1.0540(2) 0.3066(3) 0.3421(2) 0.0757(6) Uani 1 1 d . . . . .
H22 H 1.128139 0.371677 0.297580 0.091 Uiso 1 1 calc R . . . .
C23 C 1.0410(3) 0.2234(3) 0.2805(2) 0.0770(7) Uani 1 1 d . . . . .
H23 H 1.104823 0.233051 0.193605 0.092 Uiso 1 1 calc R . . . .
C24 C 0.9339(3) 0.1276(3) 0.3486(3) 0.0808(7) Uani 1 1 d . . . . .
H24 H 0.924366 0.070927 0.307902 0.097 Uiso 1 1 calc R . . . .
C25 C 0.8381(3) 0.1127(3) 0.4780(2) 0.0705(6) Uani 1 1 d . . . . .
H25 H 0.766388 0.044881 0.523496 0.085 Uiso 1 1 calc R . . . .
loop_
_atom_site_aniso_label
_atom_site_aniso_U_11
_atom_site_aniso_U_22
_atom_site_aniso_U_33
_atom_site_aniso_U_23
_atom_site_aniso_U_13
_atom_site_aniso_U_12
O1 0.0584(9) 0.0601(9) 0.0592(8) -0.0214(7) -0.0092(7) 0.0077(7)
O2 0.0851(12) 0.1074(15) 0.1257(15) -0.0845(13) -0.0263(11) 0.0019(10)
O3 0.0558(8) 0.0662(8) 0.0401(6) -0.0264(6) -0.0134(6) -0.0033(6)
O4 0.0590(8) 0.0679(9) 0.0629(8) -0.0383(7) -0.0186(7) 0.0163(7)
O5 0.0572(8) 0.0755(9) 0.0400(7) -0.0258(6) -0.0148(6) 0.0035(7)
C1 0.0441(10) 0.0644(12) 0.0751(13) -0.0344(10) -0.0242(9) 0.0052(9)
C2 0.0408(11) 0.0971(18) 0.0950(16) -0.0574(14) -0.0183(11) 0.0055(11)
C3 0.0423(11) 0.0960(18) 0.0945(17) -0.0481(14) -0.0150(11) -0.0069(11)
C4 0.0537(12) 0.0869(16) 0.0897(16) -0.0522(13) -0.0227(11) -0.0088(11)
C5 0.0483(10) 0.0593(12) 0.0579(11) -0.0242(9) -0.0106(9) -0.0055(9)
C6 0.0406(9) 0.0631(11) 0.0446(9) -0.0263(8) -0.0139(7) -0.0012(8)
C7 0.0599(13) 0.0937(17) 0.0737(14) -0.0383(12) -0.0375(11) 0.0046(12)
C8 0.0407(9) 0.0484(9) 0.0378(8) -0.0190(7) -0.0147(7) 0.0036(7)
C9 0.0364(8) 0.0544(10) 0.0393(8) -0.0233(7) -0.0132(7) 0.0031(7)
C10 0.0436(9) 0.0730(13) 0.0526(10) -0.0338(9) -0.0207(8) 0.0155(9)
C11 0.0424(10) 0.0686(13) 0.0565(11) -0.0317(9) -0.0141(8) 0.0080(9)
C12 0.0456(10) 0.0669(12) 0.0529(10) -0.0277(9) -0.0175(8) 0.0151(9)
C13 0.0643(13) 0.0627(13) 0.0607(12) -0.0226(10) -0.0153(10) 0.0251(10)
C14 0.0701(14) 0.0524(12) 0.0847(15) -0.0313(11) -0.0049(12) 0.0074(10)
C15 0.0609(12) 0.0540(12) 0.0700(13) -0.0262(10) -0.0109(10) -0.0091(10)
C16 0.0367(8) 0.0585(10) 0.0477(10) -0.0301(8) -0.0143(7) 0.0013(7)
C17 0.0831(16) 0.0579(13) 0.0829(15) -0.0339(11) -0.0326(13) 0.0150(11)
C18 0.0698(13) 0.0524(12) 0.0637(12) -0.0160(9) -0.0250(10) -0.0011(10)
C19 0.0469(10) 0.0614(12) 0.0508(10) -0.0223(9) -0.0121(8) -0.0063(8)
C20 0.0460(10) 0.0696(13) 0.0557(11) -0.0308(10) -0.0203(9) 0.0192(9)
C21 0.0528(11) 0.0899(16) 0.0650(12) -0.0427(12) -0.0158(10) 0.0066(11)
C22 0.0531(12) 0.0939(18) 0.0699(14) -0.0345(13) -0.0084(10) 0.0041(12)
C23 0.0650(14) 0.1004(19) 0.0571(12) -0.0363(13) -0.0136(11) 0.0280(14)
C24 0.0770(16) 0.104(2) 0.0797(15) -0.0615(15) -0.0244(13) 0.0263(15)
C25 0.0621(13) 0.0786(15) 0.0776(14) -0.0465(12) -0.0155(11) 0.0112(11)
loop_
_atom_type_symbol
_atom_type_description
_atom_type_scat_dispersion_real
_atom_type_scat_dispersion_imag
_atom_type_scat_source
C C 0.0181 0.0091 'International Tables Vol C Tables 4.2.6.8 and 6.1.1.4'
H H 0.0000 0.0000 'International Tables Vol C Tables 4.2.6.8 and 6.1.1.4'
O O 0.0492 0.0322 'International Tables Vol C Tables 4.2.6.8 and 6.1.1.4'
loop_
_geom_angle_atom_site_label_1
_geom_angle_atom_site_label_2
_geom_angle_atom_site_label_3
_geom_angle
_geom_angle_site_symmetry_1
_geom_angle_site_symmetry_3
_geom_angle_publ_flag
C15 O1 C14 117.42(18) . . ?
C16 O4 C17 122.89(16) . . ?
C2 C1 H1 115.8 . . ?
C2 C1 C6 105.92(17) . . ?
C2 C1 C7 100.42(17) . . ?
C6 C1 H1 115.8 . . ?
C7 C1 H1 115.8 . . ?
C7 C1 C6 100.95(16) . . ?
C1 C2 H2 126.2 . . ?
C3 C2 C1 107.6(2) . . ?
C3 C2 H2 126.2 . . ?
C2 C3 H3 126.1 . . ?
C2 C3 C4 107.8(2) . . ?
C4 C3 H3 126.1 . . ?
C3 C4 H4 115.9 . . ?
C3 C4 C5 106.46(17) . . ?
C3 C4 C7 100.2(2) . . ?
C5 C4 H4 115.9 . . ?
C7 C4 H4 115.9 . . ?
C7 C4 C5 100.15(16) . . ?
C4 C5 H5 107.9 . . ?
C4 C5 C6 103.06(16) . . ?
C6 C5 H5 107.9 . . ?
C15 C5 C4 114.63(18) . . ?
C15 C5 H5 107.9 . . ?
C15 C5 C6 115.06(16) . . ?
C1 C6 H6 109.9 . . ?
C5 C6 C1 101.27(15) . . ?
C5 C6 H6 109.9 . . ?
C8 C6 C1 109.24(15) . . ?
C8 C6 C5 116.38(15) . . ?
C8 C6 H6 109.9 . . ?
C1 C7 C4 93.86(16) . . ?
C1 C7 H7A 112.9 . . ?
C1 C7 H7B 112.9 . . ?
C4 C7 H7A 112.9 . . ?
C4 C7 H7B 112.9 . . ?
H7A C7 H7B 110.4 . . ?
O3 C8 C6 121.59(15) . . ?
O3 C8 C9 118.08(15) . . ?
C6 C8 C9 120.33(13) . . ?
C8 C9 C10 106.48(14) . . ?
C16 C9 C8 109.74(13) . . ?
C16 C9 C10 108.36(13) . . ?
C19 C9 C8 109.29(13) . . ?
C19 C9 C10 112.07(14) . . ?
C19 C9 C16 110.79(14) . . ?
C9 C10 H10A 109.0 . . ?
C9 C10 H10B 109.0 . . ?
H10A C10 H10B 107.8 . . ?
C11 C10 C9 113.00(15) . . ?
C11 C10 H10A 109.0 . . ?
C11 C10 H10B 109.0 . . ?
C10 C11 H11 115.5 . . ?
C12 C11 C10 128.9(2) . . ?
C12 C11 H11 115.5 . . ?
C11 C12 C13 123.56(18) . . ?
C11 C12 C20 119.40(19) . . ?
C20 C12 C13 117.03(17) . . ?
C12 C13 H13A 108.5 . . ?
C12 C13 H13B 108.5 . . ?
H13A C13 H13B 107.5 . . ?
C14 C13 C12 115.06(18) . . ?
C14 C13 H13A 108.5 . . ?
C14 C13 H13B 108.5 . . ?
O1 C14 C13 108.55(18) . . ?
O1 C14 H14A 110.0 . . ?
O1 C14 H14B 110.0 . . ?
C13 C14 H14A 110.0 . . ?
C13 C14 H14B 110.0 . . ?
H14A C14 H14B 108.4 . . ?
O1 C15 C5 109.89(18) . . ?
O2 C15 O1 123.8(2) . . ?
O2 C15 C5 126.2(2) . . ?
O4 C16 C9 118.17(15) . . ?
O5 C16 O4 118.09(15) . . ?
O5 C16 C9 123.56(16) . . ?
O4 C17 H17A 108.7 . . ?
O4 C17 H17B 108.7 . . ?
O4 C17 C18 114.32(17) . . ?
H17A C17 H17B 107.6 . . ?
C18 C17 H17A 108.7 . . ?
C18 C17 H17B 108.7 . . ?
C17 C18 H18A 109.6 . . ?
C17 C18 H18B 109.6 . . ?
C17 C18 C19 110.41(17) . . ?
H18A C18 H18B 108.1 . . ?
C19 C18 H18A 109.6 . . ?
C19 C18 H18B 109.6 . . ?
C9 C19 H19A 109.6 . . ?
C9 C19 H19B 109.6 . . ?
C18 C19 C9 110.44(15) . . ?
C18 C19 H19A 109.6 . . ?
C18 C19 H19B 109.6 . . ?
H19A C19 H19B 108.1 . . ?
C21 C20 C12 121.61(19) . . ?
C21 C20 C25 116.22(19) . . ?
C25 C20 C12 122.2(2) . . ?
C20 C21 H21 118.7 . . ?
C22 C21 C20 122.5(2) . . ?
C22 C21 H21 118.7 . . ?
C21 C22 H22 120.0 . . ?
C21 C22 C23 120.1(2) . . ?
C23 C22 H22 120.0 . . ?
C22 C23 H23 120.6 . . ?
C24 C23 C22 118.9(2) . . ?
C24 C23 H23 120.6 . . ?
C23 C24 H24 119.5 . . ?
C23 C24 C25 121.0(2) . . ?
C25 C24 H24 119.5 . . ?
C20 C25 H25 119.4 . . ?
C24 C25 C20 121.3(2) . . ?
C24 C25 H25 119.4 . . ?
loop_
_geom_bond_atom_site_label_1
_geom_bond_atom_site_label_2
_geom_bond_distance
_geom_bond_site_symmetry_2
_geom_bond_publ_flag
O1 C14 1.447(3) . ?
O1 C15 1.346(3) . ?
O2 C15 1.198(3) . ?
O3 C8 1.2117(19) . ?
O4 C16 1.333(2) . ?
O4 C17 1.449(3) . ?
O5 C16 1.201(2) . ?
C1 H1 0.9800 . ?
C1 C2 1.504(3) . ?
C1 C6 1.572(3) . ?
C1 C7 1.517(3) . ?
C2 H2 0.9300 . ?
C2 C3 1.311(3) . ?
C3 H3 0.9300 . ?
C3 C4 1.498(3) . ?
C4 H4 0.9800 . ?
C4 C5 1.558(3) . ?
C4 C7 1.526(3) . ?
C5 H5 0.9800 . ?
C5 C6 1.564(3) . ?
C5 C15 1.502(3) . ?
C6 H6 0.9800 . ?
C6 C8 1.515(2) . ?
C7 H7A 0.9700 . ?
C7 H7B 0.9700 . ?
C8 C9 1.551(2) . ?
C9 C10 1.565(2) . ?
C9 C16 1.529(2) . ?
C9 C19 1.529(3) . ?
C10 H10A 0.9700 . ?
C10 H10B 0.9700 . ?
C10 C11 1.505(2) . ?
C11 H11 0.9300 . ?
C11 C12 1.339(3) . ?
C12 C13 1.510(3) . ?
C12 C20 1.503(3) . ?
C13 H13A 0.9700 . ?
C13 H13B 0.9700 . ?
C13 C14 1.506(4) . ?
C14 H14A 0.9700 . ?
C14 H14B 0.9700 . ?
C17 H17A 0.9700 . ?
C17 H17B 0.9700 . ?
C17 C18 1.499(3) . ?
C18 H18A 0.9700 . ?
C18 H18B 0.9700 . ?
C18 C19 1.506(3) . ?
C19 H19A 0.9700 . ?
C19 H19B 0.9700 . ?
C20 C21 1.378(3) . ?
C20 C25 1.391(3) . ?
C21 H21 0.9300 . ?
C21 C22 1.374(3) . ?
C22 H22 0.9300 . ?
C22 C23 1.378(4) . ?
C23 H23 0.9300 . ?
C23 C24 1.353(4) . ?
C24 H24 0.9300 . ?
C24 C25 1.386(3) . ?
C25 H25 0.9300 . ?
loop_
_geom_torsion_atom_site_label_1
_geom_torsion_atom_site_label_2
_geom_torsion_atom_site_label_3
_geom_torsion_atom_site_label_4
_geom_torsion
_geom_torsion_site_symmetry_1
_geom_torsion_site_symmetry_2
_geom_torsion_site_symmetry_3
_geom_torsion_site_symmetry_4
_geom_torsion_publ_flag
O3 C8 C9 C10 -75.78(18) . . . . ?
O3 C8 C9 C16 167.14(15) . . . . ?
O3 C8 C9 C19 45.5(2) . . . . ?
O4 C17 C18 C19 -46.1(3) . . . . ?
C1 C2 C3 C4 0.6(3) . . . . ?
C1 C6 C8 O3 -71.0(2) . . . . ?
C1 C6 C8 C9 108.37(17) . . . . ?
C2 C1 C6 C5 67.72(18) . . . . ?
C2 C1 C6 C8 -168.96(15) . . . . ?
C2 C1 C7 C4 -49.48(19) . . . . ?
C2 C3 C4 C5 70.4(3) . . . . ?
C2 C3 C4 C7 -33.5(2) . . . . ?
C3 C4 C5 C6 -66.8(2) . . . . ?
C3 C4 C5 C15 167.42(18) . . . . ?
C3 C4 C7 C1 49.86(18) . . . . ?
C4 C5 C6 C1 -0.54(18) . . . . ?
C4 C5 C6 C8 -118.82(17) . . . . ?
C4 C5 C15 O1 177.52(17) . . . . ?
C4 C5 C15 O2 -6.1(3) . . . . ?
C5 C4 C7 C1 -59.09(18) . . . . ?
C5 C6 C8 O3 42.8(2) . . . . ?
C5 C6 C8 C9 -137.80(17) . . . . ?
C6 C1 C2 C3 -71.9(2) . . . . ?
C6 C1 C7 C4 59.16(18) . . . . ?
C6 C5 C15 O1 58.3(2) . . . . ?
C6 C5 C15 O2 -125.4(2) . . . . ?
C6 C8 C9 C10 104.80(17) . . . . ?
C6 C8 C9 C16 -12.3(2) . . . . ?
C6 C8 C9 C19 -133.96(16) . . . . ?
C7 C1 C2 C3 32.7(2) . . . . ?
C7 C1 C6 C5 -36.56(18) . . . . ?
C7 C1 C6 C8 86.76(18) . . . . ?
C7 C4 C5 C6 37.13(19) . . . . ?
C7 C4 C5 C15 -88.7(2) . . . . ?
C8 C9 C10 C11 69.67(19) . . . . ?
C8 C9 C16 O4 -84.20(18) . . . . ?
C8 C9 C16 O5 90.74(19) . . . . ?
C8 C9 C19 C18 68.93(18) . . . . ?
C9 C10 C11 C12 -124.2(2) . . . . ?
C10 C9 C16 O4 159.91(16) . . . . ?
C10 C9 C16 O5 -25.1(2) . . . . ?
C10 C9 C19 C18 -173.28(15) . . . . ?
C10 C11 C12 C13 0.6(3) . . . . ?
C10 C11 C12 C20 179.65(18) . . . . ?
C11 C12 C13 C14 91.7(3) . . . . ?
C11 C12 C20 C21 32.7(3) . . . . ?
C11 C12 C20 C25 -146.4(2) . . . . ?
C12 C13 C14 O1 -80.9(2) . . . . ?
C12 C20 C21 C22 -179.2(2) . . . . ?
C12 C20 C25 C24 178.0(2) . . . . ?
C13 C12 C20 C21 -148.1(2) . . . . ?
C13 C12 C20 C25 32.7(3) . . . . ?
C14 O1 C15 O2 4.2(3) . . . . ?
C14 O1 C15 C5 -179.38(17) . . . . ?
C15 O1 C14 C13 155.79(18) . . . . ?
C15 C5 C6 C1 124.96(19) . . . . ?
C15 C5 C6 C8 6.7(3) . . . . ?
C16 O4 C17 C18 31.7(3) . . . . ?
C16 C9 C10 C11 -172.34(15) . . . . ?
C16 C9 C19 C18 -52.11(19) . . . . ?
C17 O4 C16 O5 157.82(18) . . . . ?
C17 O4 C16 C9 -27.0(2) . . . . ?
C17 C18 C19 C9 57.8(2) . . . . ?
C19 C9 C10 C11 -49.8(2) . . . . ?
C19 C9 C16 O4 36.6(2) . . . . ?
C19 C9 C16 O5 -148.48(17) . . . . ?
C20 C12 C13 C14 -87.4(2) . . . . ?
C20 C21 C22 C23 1.3(4) . . . . ?
C21 C20 C25 C24 -1.2(3) . . . . ?
C21 C22 C23 C24 -1.3(4) . . . . ?
C22 C23 C24 C25 0.1(4) . . . . ?
C23 C24 C25 C20 1.2(4) . . . . ?
C25 C20 C21 C22 0.0(3) . . . . ?
