#------------------------------------------------------------------------------
#$Date: 2024-07-05 16:13:23 +0300 (Fri, 05 Jul 2024) $
#$Revision: 292770 $
#$URL: file:///home/coder/svn-repositories/cod/cif/7/13/30/7133046.cif $
#------------------------------------------------------------------------------
#
# This file is available in the Crystallography Open Database (COD),
# http://www.crystallography.net/
#
# All data on this site have been placed in the public domain by the
# contributors.
#
data_7133046
loop_
_publ_author_name
'Tao, Li'
'Wang, He'
'Liu, Xiao-Fei'
'Ren, Wei-Min'
'Lu, Xiao-Bing'
'Zhang, Wen-Zhen'
_publ_section_title
;
 Electrochemical ring-opening carboxylation of cyclic carbonate with
 carbon dioxide.
;
_journal_issue                   44
_journal_name_full               'Chemical communications (Cambridge, England)'
_journal_page_first              5735
_journal_page_last               5738
_journal_paper_doi               10.1039/d4cc01695e
_journal_volume                  60
_journal_year                    2024
_chemical_formula_moiety         'C17 H18 O5'
_chemical_formula_sum            'C17 H18 O5'
_chemical_formula_weight         302.31
_space_group_crystal_system      triclinic
_space_group_IT_number           2
_space_group_name_Hall           '-P 1'
_space_group_name_H-M_alt        'P -1'
_atom_sites_solution_hydrogens   geom
_atom_sites_solution_primary     dual
_audit_creation_date             2023-02-26
_audit_creation_method
;
Olex2 1.2
(compiled 2017.03.28 svn.r3405 for OlexSys, GUI svn.r5335)
;
_audit_update_record
;
2023-03-03 deposited with the CCDC.	2024-05-08 downloaded from the CCDC.
;
_cell_angle_alpha                99.886(3)
_cell_angle_beta                 92.872(3)
_cell_angle_gamma                108.302(3)
_cell_formula_units_Z            2
_cell_length_a                   5.8137(4)
_cell_length_b                   8.5017(5)
_cell_length_c                   16.6639(10)
_cell_measurement_reflns_used    4407
_cell_measurement_temperature    296(2)
_cell_measurement_theta_max      74.55
_cell_measurement_theta_min      2.71
_cell_volume                     765.58(8)
_computing_cell_refinement       'SAINT V8.40A (?, 2016)'
_computing_data_reduction        'SAINT V8.40A (?, 2016)'
_computing_molecular_graphics    'Olex2 (Dolomanov et al., 2009)'
_computing_publication_material  'Olex2 (Dolomanov et al., 2009)'
_computing_structure_refinement  'ShelXL (Sheldrick, 2015)'
_computing_structure_solution    'ShelXT (Sheldrick, 2015)'
_diffrn_ambient_temperature      296.5
_diffrn_measured_fraction_theta_full 0.974
_diffrn_measured_fraction_theta_max 0.967
_diffrn_measurement_device_type  'CCD area detector'
_diffrn_measurement_method       'phi and omega scans'
_diffrn_radiation_monochromator  graphite
_diffrn_radiation_type           CuK\a
_diffrn_radiation_wavelength     1.54178
_diffrn_reflns_av_R_equivalents  0.0264
_diffrn_reflns_av_unetI/netI     0.0305
_diffrn_reflns_Laue_measured_fraction_full 0.974
_diffrn_reflns_Laue_measured_fraction_max 0.967
_diffrn_reflns_limit_h_max       7
_diffrn_reflns_limit_h_min       -7
_diffrn_reflns_limit_k_max       10
_diffrn_reflns_limit_k_min       -9
_diffrn_reflns_limit_l_max       20
_diffrn_reflns_limit_l_min       -20
_diffrn_reflns_number            7734
_diffrn_reflns_point_group_measured_fraction_full 0.974
_diffrn_reflns_point_group_measured_fraction_max 0.967
_diffrn_reflns_theta_full        67.679
_diffrn_reflns_theta_max         74.540
_diffrn_reflns_theta_min         2.708
_exptl_absorpt_coefficient_mu    0.799
_exptl_absorpt_correction_T_max  0.7538
_exptl_absorpt_correction_T_min  0.6609
_exptl_absorpt_correction_type   none
_exptl_absorpt_process_details
;
SADABS-2016/2 (Bruker,2016/2) was used for absorption correction.
wR2(int) was 0.0679 before and 0.0444 after correction.
The Ratio of minimum to maximum transmission is 0.8768.
The \l/2 correction factor is Not present.
;
_exptl_crystal_colour            white
_exptl_crystal_density_diffrn    1.311
_exptl_crystal_description       block
_exptl_crystal_F_000             320
_exptl_crystal_size_max          0.2
_exptl_crystal_size_mid          0.15
_exptl_crystal_size_min          0.1
_refine_diff_density_max         0.445
_refine_diff_density_min         -0.252
_refine_diff_density_rms         0.084
_refine_ls_extinction_method     none
_refine_ls_goodness_of_fit_ref   1.092
_refine_ls_hydrogen_treatment    constr
_refine_ls_matrix_type           full
_refine_ls_number_parameters     202
_refine_ls_number_reflns         3034
_refine_ls_number_restraints     0
_refine_ls_restrained_S_all      1.092
_refine_ls_R_factor_all          0.0615
_refine_ls_R_factor_gt           0.0523
_refine_ls_shift/su_max          0.000
_refine_ls_shift/su_mean         0.000
_refine_ls_structure_factor_coef Fsqd
_refine_ls_weighting_details
'w=1/[\s^2^(Fo^2^)+(0.0982P)^2^+0.1398P] where P=(Fo^2^+2Fc^2^)/3'
_refine_ls_weighting_scheme      calc
_refine_ls_wR_factor_gt          0.1593
_refine_ls_wR_factor_ref         0.1730
_reflns_Friedel_coverage         0.000
_reflns_number_gt                2583
_reflns_number_total             3034
_reflns_threshold_expression     'I > 2\s(I)'
_iucr_refine_instructions_details
;
TITL 1_a.res in P-1
    1.res
    created by SHELXL-2016/6 at 12:36:58 on 26-Feb-2023
REM Old TITL 1 in P-1
REM SHELXT solution in P-1
REM R1 0.186, Rweak 0.007, Alpha 0.068, Orientation as input
REM Formula found by SHELXT: C17 O5
CELL 1.54178 5.8137 8.5017 16.6639 99.886 92.872 108.302
ZERR 2 0.0004 0.0005 0.001 0.003 0.003 0.003
LATT 1
SFAC C H O
UNIT 34 36 10

L.S. 20
PLAN  5
TEMP 23.35
BOND $H
list 4
fmap 2
acta
REM <olex2.extras>
REM <HklSrc "%.\\1.hkl">
REM </olex2.extras>

WGHT    0.098200    0.139800
FVAR       2.33905
O001  3    0.086362    0.666591    0.931958    11.00000    0.04885    0.04927 =
         0.08005    0.00663    0.00502    0.02060
O002  3    0.620874    0.201928    0.819857    11.00000    0.04882    0.04734 =
         0.08421    0.00597    0.01320    0.01992
O003  3    0.220590    0.118892    0.823461    11.00000    0.04903    0.04573 =
         0.12457    0.01197    0.00659    0.01207
O004  3    0.486505    0.734057    0.958882    11.00000    0.05019    0.05650 =
         0.12429   -0.00847   -0.00211    0.01611
O005  3    0.659507    0.857078    0.467445    11.00000    0.08829    0.06029 =
         0.05312    0.02349    0.01260    0.00912
C006  1    0.411608    0.228984    0.830950    11.00000    0.04438    0.04252 =
         0.04946    0.01051    0.00421    0.01491
C007  1    0.648914    0.660588    0.680311    11.00000    0.04282    0.03613 =
         0.04731    0.00563    0.00772    0.01102
C008  1    0.648579    0.595751    0.752999    11.00000    0.04254    0.04213 =
         0.04738    0.00644    0.00265    0.01039
AFIX  43
H008  2    0.792117    0.629163    0.788133    11.00000   -1.20000
AFIX   0
C009  1    0.442892    0.485399    0.772856    11.00000    0.04473    0.04224 =
         0.04616    0.00906    0.00621    0.01320
C00A  1    0.430879    0.611222    0.626537    11.00000    0.04504    0.04069 =
         0.04748    0.01039    0.00686    0.01172
C00B  1    0.446103    0.417061    0.851868    11.00000    0.04191    0.04223 =
         0.05059    0.00870    0.00682    0.01345
AFIX  13
H00B  2    0.605548    0.475582    0.883834    11.00000   -1.20000
AFIX   0
C00C  1    0.292675    0.630724    0.933526    11.00000    0.04473    0.04749 =
         0.05001    0.00995    0.00819    0.01718
C00D  1    0.429773    0.676715    0.553561    11.00000    0.05558    0.04752 =
         0.04963    0.01273    0.00321    0.01410
AFIX  43
H00D  2    0.286603    0.644971    0.518387    11.00000   -1.20000
AFIX   0
C00E  1    0.249118    0.446042    0.904164    11.00000    0.05042    0.04693 =
         0.05642    0.01311    0.01215    0.01680
AFIX  23
H00A  2    0.090870    0.394644    0.872101    11.00000   -1.20000
H00C  2    0.247813    0.392056    0.950987    11.00000   -1.20000
AFIX   0
C00F  1    0.861349    0.774300    0.658484    11.00000    0.04604    0.05299 =
         0.05898    0.01339    0.00671    0.00622
AFIX  43
H00F  2    1.006669    0.807680    0.692694    11.00000   -1.20000
AFIX   0
C00G  1    0.225535    0.435754    0.718476    11.00000    0.04262    0.06095 =
         0.06336    0.02405    0.00525    0.00242
AFIX  43
H00G  2    0.084128    0.360055    0.731024    11.00000   -1.20000
AFIX   0
C00H  1    0.637551    0.785459    0.535293    11.00000    0.06851    0.04227 =
         0.04667    0.01201    0.01456    0.01512
C00I  1    0.856550    0.835339    0.588587    11.00000    0.05484    0.05423 =
         0.06369    0.01840    0.01626    0.00581
AFIX  43
H00I  2    0.997830    0.910369    0.575568    11.00000   -1.20000
AFIX   0
C00J  1    0.220157    0.496905    0.648249    11.00000    0.04234    0.06491 =
         0.06115    0.02242   -0.00216    0.00388
AFIX  43
H00J  2    0.074879    0.462688    0.613948    11.00000   -1.20000
AFIX   0
C00K  1    0.608521    0.026970    0.796807    11.00000    0.06438    0.05227 =
         0.08893    0.00708    0.01074    0.02954
AFIX 137
H00E  2    0.504104   -0.024329    0.746380    11.00000   -1.50000
H00H  2    0.544303   -0.032441    0.839109    11.00000   -1.50000
H00K  2    0.768972    0.021753    0.789659    11.00000   -1.50000
AFIX   0
C00L  1    0.105824    0.839637    0.963296    11.00000    0.06772    0.04875 =
         0.09593    0.01180    0.01785    0.02742
AFIX 137
H00L  2    0.228366    0.913102    0.937723    11.00000   -1.50000
H00M  2    0.150161    0.865996    1.021507    11.00000   -1.50000
H00N  2   -0.048085    0.855120    0.951542    11.00000   -1.50000
AFIX   0
C00M  1    0.448750    0.809547    0.409760    11.00000    0.10900    0.06143 =
         0.05171    0.01832    0.00311    0.02189
AFIX 137
H00O  2    0.486295    0.869353    0.365634    11.00000   -1.50000
H00P  2    0.319648    0.837116    0.436272    11.00000   -1.50000
H00Q  2    0.398168    0.690118    0.388471    11.00000   -1.50000
AFIX   0
HKLF 4




REM  1_a.res in P-1
REM R1 =  0.0523 for    2583 Fo > 4sig(Fo)  and  0.0615 for all    3034 data
REM    202 parameters refined using      0 restraints

END  
     
WGHT      0.0982      0.1398 

REM Highest difference peak  0.445,  deepest hole -0.252,  1-sigma level  0.084
Q1    1   0.3202  0.5135  0.7688  11.00000  0.05    0.44
Q2    1   0.3087  0.4577  0.8512  11.00000  0.05    0.34
Q3    1   0.5229  0.6089  0.7641  11.00000  0.05    0.32
Q4    1   0.4569  0.3718  0.9004  11.00000  0.05    0.28
Q5    1   0.1662  0.7002  0.8913  11.00000  0.05    0.26

  REM The information below was added by Olex2.
  REM
  REM R1 = 0.0523 for 2583 Fo > 4sig(Fo) and 0.0615 for all 7734 data
  REM n/a parameters refined using n/a restraints
  REM Highest difference peak 0.44, deepest hole -0.25
  REM Mean Shift 0, Max Shift 0.000.

  REM +++ Tabular Listing of Refinement Information +++
  REM R1_all = 0.0615
  REM R1_gt = 0.0523
  REM wR_ref = 0.1730
  REM GOOF = 1.092
  REM Shift_max = 0.000
  REM Shift_mean = 0
  REM Reflections_all = 7734
  REM Reflections_gt = 2583
  REM Parameters = n/a
  REM Hole = -0.25
  REM Peak = 0.44
  REM Flack = n/a

  
;
_cod_data_source_file            d4cc01695e2.cif
_cod_data_source_block           1_CCDC2
_cod_depositor_comments
'Adding full bibliography for 7133043--7133046.cif.'
_cod_database_code               7133046
_shelx_shelxl_version_number     2016/6
_shelx_space_group_comment
;
The symmetry employed for this shelxl refinement is uniquely defined
by the following loop, which should always be used as a source of
symmetry information in preference to the above space-group names.
They are only intended as comments.
;
_olex2_refinement_description
;
1. Fixed Uiso
 At 1.2 times of:
  All C(H) groups, All C(H,H) groups
 At 1.5 times of:
  All C(H,H,H) groups
2.a Ternary CH refined with riding coordinates:
 C00B(H00B)
2.b Secondary CH2 refined with riding coordinates:
 C00E(H00A,H00C)
2.c Aromatic/amide H refined with riding coordinates:
 C008(H008), C00D(H00D), C00F(H00F), C00G(H00G), C00I(H00I), C00J(H00J)
2.d Idealised Me refined as rotating group:
 C00K(H00E,H00H,H00K), C00L(H00L,H00M,H00N), C00M(H00O,H00P,H00Q)
;
_olex2_submission_special_instructions 'No special instructions were received'
loop_
_space_group_symop_operation_xyz
'x, y, z'
'-x, -y, -z'
loop_
_atom_site_label
_atom_site_type_symbol
_atom_site_fract_x
_atom_site_fract_y
_atom_site_fract_z
_atom_site_U_iso_or_equiv
_atom_site_adp_type
_atom_site_occupancy
_atom_site_site_symmetry_order
_atom_site_calc_flag
_atom_site_refinement_flags_posn
_atom_site_refinement_flags_adp
_atom_site_refinement_flags_occupancy
_atom_site_disorder_assembly
_atom_site_disorder_group
O001 O 0.0864(2) 0.66659(15) 0.93196(9) 0.0592(4) Uani 1 1 d . . . . .
O002 O 0.6209(2) 0.20193(16) 0.81986(9) 0.0598(4) Uani 1 1 d . . . . .
O003 O 0.2206(2) 0.11889(17) 0.82346(11) 0.0747(5) Uani 1 1 d . . . . .
O004 O 0.4865(2) 0.73406(18) 0.95888(12) 0.0811(5) Uani 1 1 d . . . . .
O005 O 0.6595(3) 0.85708(18) 0.46744(8) 0.0692(4) Uani 1 1 d . . . . .
C006 C 0.4116(3) 0.22898(19) 0.83095(10) 0.0452(4) Uani 1 1 d . . . . .
C007 C 0.6489(3) 0.66059(18) 0.68031(9) 0.0428(4) Uani 1 1 d . . . . .
C008 C 0.6486(3) 0.59575(19) 0.75300(10) 0.0452(4) Uani 1 1 d . . . . .
H008 H 0.792117 0.629163 0.788133 0.054 Uiso 1 1 calc R . . . .
C009 C 0.4429(3) 0.48540(19) 0.77286(9) 0.0445(4) Uani 1 1 d . . . . .
C00A C 0.4309(3) 0.61122(19) 0.62654(10) 0.0447(4) Uani 1 1 d . . . . .
C00B C 0.4461(3) 0.4171(2) 0.85187(10) 0.0450(4) Uani 1 1 d . . . . .
H00B H 0.605548 0.475582 0.883834 0.054 Uiso 1 1 calc R . . . .
C00C C 0.2927(3) 0.6307(2) 0.93353(10) 0.0468(4) Uani 1 1 d . . . . .
C00D C 0.4298(3) 0.6767(2) 0.55356(10) 0.0513(4) Uani 1 1 d . . . . .
H00D H 0.286603 0.644971 0.518387 0.062 Uiso 1 1 calc R . . . .
C00E C 0.2491(3) 0.4460(2) 0.90416(11) 0.0505(4) Uani 1 1 d . . . . .
H00A H 0.090870 0.394644 0.872101 0.061 Uiso 1 1 calc R . . . .
H00C H 0.247813 0.392056 0.950987 0.061 Uiso 1 1 calc R . . . .
C00F C 0.8613(3) 0.7743(2) 0.65848(11) 0.0547(4) Uani 1 1 d . . . . .
H00F H 1.006669 0.807680 0.692694 0.066 Uiso 1 1 calc R . . . .
C00G C 0.2255(3) 0.4358(2) 0.71848(12) 0.0577(5) Uani 1 1 d . . . . .
H00G H 0.084128 0.360055 0.731024 0.069 Uiso 1 1 calc R . . . .
C00H C 0.6376(4) 0.7855(2) 0.53529(10) 0.0525(4) Uani 1 1 d . . . . .
C00I C 0.8565(3) 0.8353(2) 0.58859(12) 0.0593(5) Uani 1 1 d . . . . .
H00I H 0.997830 0.910369 0.575568 0.071 Uiso 1 1 calc R . . . .
C00J C 0.2202(3) 0.4969(2) 0.64825(11) 0.0584(5) Uani 1 1 d . . . . .
H00J H 0.074879 0.462688 0.613948 0.070 Uiso 1 1 calc R . . . .
C00K C 0.6085(4) 0.0270(2) 0.79681(14) 0.0668(5) Uani 1 1 d . . . . .
H00E H 0.504104 -0.024329 0.746380 0.100 Uiso 1 1 calc GR . . . .
H00H H 0.544303 -0.032441 0.839109 0.100 Uiso 1 1 calc GR . . . .
H00K H 0.768972 0.021753 0.789659 0.100 Uiso 1 1 calc GR . . . .
C00L C 0.1058(4) 0.8396(2) 0.96330(15) 0.0688(5) Uani 1 1 d . . . . .
H00L H 0.228366 0.913102 0.937723 0.103 Uiso 1 1 calc GR . . . .
H00M H 0.150161 0.865996 1.021507 0.103 Uiso 1 1 calc GR . . . .
H00N H -0.048085 0.855120 0.951542 0.103 Uiso 1 1 calc GR . . . .
C00M C 0.4487(5) 0.8095(3) 0.40976(12) 0.0748(6) Uani 1 1 d . . . . .
H00O H 0.486295 0.869353 0.365634 0.112 Uiso 1 1 calc GR . . . .
H00P H 0.319648 0.837116 0.436272 0.112 Uiso 1 1 calc GR . . . .
H00Q H 0.398168 0.690118 0.388471 0.112 Uiso 1 1 calc GR . . . .
loop_
_atom_site_aniso_label
_atom_site_aniso_U_11
_atom_site_aniso_U_22
_atom_site_aniso_U_33
_atom_site_aniso_U_23
_atom_site_aniso_U_13
_atom_site_aniso_U_12
O001 0.0488(7) 0.0493(7) 0.0801(9) 0.0066(6) 0.0050(6) 0.0206(5)
O002 0.0488(6) 0.0473(7) 0.0842(9) 0.0060(6) 0.0132(6) 0.0199(5)
O003 0.0490(7) 0.0457(7) 0.1246(13) 0.0120(7) 0.0066(7) 0.0121(6)
O004 0.0502(8) 0.0565(8) 0.1243(13) -0.0085(8) -0.0021(8) 0.0161(6)
O005 0.0883(10) 0.0603(8) 0.0531(7) 0.0235(6) 0.0126(6) 0.0091(7)
C006 0.0444(8) 0.0425(8) 0.0495(8) 0.0105(6) 0.0042(6) 0.0149(6)
C007 0.0428(8) 0.0361(7) 0.0473(8) 0.0056(6) 0.0077(6) 0.0110(6)
C008 0.0425(8) 0.0421(8) 0.0474(8) 0.0064(6) 0.0026(6) 0.0104(6)
C009 0.0447(8) 0.0422(8) 0.0462(8) 0.0091(6) 0.0062(6) 0.0132(6)
C00A 0.0450(8) 0.0407(8) 0.0475(8) 0.0104(6) 0.0069(6) 0.0117(6)
C00B 0.0419(8) 0.0422(8) 0.0506(8) 0.0087(6) 0.0068(6) 0.0134(6)
C00C 0.0447(8) 0.0475(8) 0.0500(8) 0.0099(6) 0.0082(6) 0.0172(7)
C00D 0.0556(9) 0.0475(9) 0.0496(9) 0.0127(7) 0.0032(7) 0.0141(7)
C00E 0.0504(9) 0.0469(9) 0.0564(9) 0.0131(7) 0.0122(7) 0.0168(7)
C00F 0.0460(9) 0.0530(9) 0.0590(10) 0.0134(7) 0.0067(7) 0.0062(7)
C00G 0.0426(8) 0.0609(10) 0.0634(10) 0.0240(8) 0.0052(7) 0.0024(7)
C00H 0.0685(10) 0.0423(8) 0.0467(8) 0.0120(6) 0.0146(7) 0.0151(7)
C00I 0.0548(10) 0.0542(10) 0.0637(10) 0.0184(8) 0.0163(8) 0.0058(8)
C00J 0.0423(8) 0.0649(11) 0.0612(10) 0.0224(8) -0.0022(7) 0.0039(8)
C00K 0.0644(11) 0.0523(10) 0.0889(14) 0.0071(9) 0.0107(10) 0.0295(9)
C00L 0.0677(12) 0.0487(10) 0.0959(15) 0.0118(9) 0.0179(10) 0.0274(9)
C00M 0.1090(17) 0.0614(12) 0.0517(10) 0.0183(8) 0.0031(10) 0.0219(11)
loop_
_atom_type_symbol
_atom_type_description
_atom_type_scat_dispersion_real
_atom_type_scat_dispersion_imag
_atom_type_scat_source
C C 0.0181 0.0091 'International Tables Vol C Tables 4.2.6.8 and 6.1.1.4'
H H 0.0000 0.0000 'International Tables Vol C Tables 4.2.6.8 and 6.1.1.4'
O O 0.0492 0.0322 'International Tables Vol C Tables 4.2.6.8 and 6.1.1.4'
loop_
_geom_angle_atom_site_label_1
_geom_angle_atom_site_label_2
_geom_angle_atom_site_label_3
_geom_angle
_geom_angle_site_symmetry_1
_geom_angle_site_symmetry_3
_geom_angle_publ_flag
C00C O001 C00L 116.50(14) . . ?
C006 O002 C00K 116.29(14) . . ?
C00H O005 C00M 117.35(16) . . ?
O002 C006 C00B 111.53(13) . . ?
O003 C006 O002 123.63(15) . . ?
O003 C006 C00B 124.82(14) . . ?
C008 C007 C00A 119.66(14) . . ?
C008 C007 C00F 122.34(15) . . ?
C00F C007 C00A 118.00(15) . . ?
C007 C008 H008 119.2 . . ?
C009 C008 C007 121.63(14) . . ?
C009 C008 H008 119.2 . . ?
C008 C009 C00B 120.84(14) . . ?
C008 C009 C00G 118.40(15) . . ?
C00G C009 C00B 120.76(14) . . ?
C007 C00A C00D 119.92(15) . . ?
C00J C00A C007 117.78(15) . . ?
C00J C00A C00D 122.30(15) . . ?
C006 C00B C009 109.55(13) . . ?
C006 C00B H00B 108.5 . . ?
C006 C00B C00E 109.71(13) . . ?
C009 C00B H00B 108.5 . . ?
C00E C00B C009 112.08(13) . . ?
C00E C00B H00B 108.5 . . ?
O001 C00C C00E 111.87(14) . . ?
O004 C00C O001 123.03(16) . . ?
O004 C00C C00E 125.02(15) . . ?
C00A C00D H00D 120.0 . . ?
C00H C00D C00A 119.97(16) . . ?
C00H C00D H00D 120.0 . . ?
C00B C00E H00A 109.4 . . ?
C00B C00E H00C 109.4 . . ?
C00C C00E C00B 111.26(13) . . ?
C00C C00E H00A 109.4 . . ?
C00C C00E H00C 109.4 . . ?
H00A C00E H00C 108.0 . . ?
C007 C00F H00F 119.4 . . ?
C00I C00F C007 121.19(16) . . ?
C00I C00F H00F 119.4 . . ?
C009 C00G H00G 119.4 . . ?
C00J C00G C009 121.25(15) . . ?
C00J C00G H00G 119.4 . . ?
O005 C00H C00I 114.01(16) . . ?
C00D C00H O005 125.46(17) . . ?
C00D C00H C00I 120.53(16) . . ?
C00F C00I C00H 120.39(16) . . ?
C00F C00I H00I 119.8 . . ?
C00H C00I H00I 119.8 . . ?
C00A C00J H00J 119.4 . . ?
C00G C00J C00A 121.28(15) . . ?
C00G C00J H00J 119.4 . . ?
O002 C00K H00E 109.5 . . ?
O002 C00K H00H 109.5 . . ?
O002 C00K H00K 109.5 . . ?
H00E C00K H00H 109.5 . . ?
H00E C00K H00K 109.5 . . ?
H00H C00K H00K 109.5 . . ?
O001 C00L H00L 109.5 . . ?
O001 C00L H00M 109.5 . . ?
O001 C00L H00N 109.5 . . ?
H00L C00L H00M 109.5 . . ?
H00L C00L H00N 109.5 . . ?
H00M C00L H00N 109.5 . . ?
O005 C00M H00O 109.5 . . ?
O005 C00M H00P 109.5 . . ?
O005 C00M H00Q 109.5 . . ?
H00O C00M H00P 109.5 . . ?
H00O C00M H00Q 109.5 . . ?
H00P C00M H00Q 109.5 . . ?
loop_
_geom_bond_atom_site_label_1
_geom_bond_atom_site_label_2
_geom_bond_distance
_geom_bond_site_symmetry_2
_geom_bond_publ_flag
O001 C00C 1.327(2) . ?
O001 C00L 1.441(2) . ?
O002 C006 1.323(2) . ?
O002 C00K 1.449(2) . ?
O003 C006 1.191(2) . ?
O004 C00C 1.193(2) . ?
O005 C00H 1.367(2) . ?
O005 C00M 1.423(3) . ?
C006 C00B 1.523(2) . ?
C007 C008 1.414(2) . ?
C007 C00A 1.417(2) . ?
C007 C00F 1.417(2) . ?
C008 H008 0.9300 . ?
C008 C009 1.364(2) . ?
C009 C00B 1.529(2) . ?
C009 C00G 1.420(2) . ?
C00A C00D 1.422(2) . ?
C00A C00J 1.412(2) . ?
C00B H00B 0.9800 . ?
C00B C00E 1.528(2) . ?
C00C C00E 1.498(2) . ?
C00D H00D 0.9300 . ?
C00D C00H 1.356(3) . ?
C00E H00A 0.9700 . ?
C00E H00C 0.9700 . ?
C00F H00F 0.9300 . ?
C00F C00I 1.357(3) . ?
C00G H00G 0.9300 . ?
C00G C00J 1.362(3) . ?
C00H C00I 1.417(3) . ?
C00I H00I 0.9300 . ?
C00J H00J 0.9300 . ?
C00K H00E 0.9600 . ?
C00K H00H 0.9600 . ?
C00K H00K 0.9600 . ?
C00L H00L 0.9600 . ?
C00L H00M 0.9600 . ?
C00L H00N 0.9600 . ?
C00M H00O 0.9600 . ?
C00M H00P 0.9600 . ?
C00M H00Q 0.9600 . ?
loop_
_refln_index_h
_refln_index_k
_refln_index_l
_refln_F_squared_meas
_refln_F_squared_sigma
-2 0 0 3.9 0.7
2 0 0 0.8 0.6
-3 0 0 104.39 4.5
-3 0 0 101.59 5.4
3 0 0 98.99 5.3
-4 0 0 415.06 16.3
-4 0 0 440.96 16.1
4 0 0 404.06 16.3
4 0 0 430.96 17
-5 0 0 73.39 6.1
-5 0 0 77.09 5.6
5 0 0 84.69 5.8
-6 0 0 123.29 6.4
-6 0 0 125.69 6.3
6 0 0 120.79 6.3
7 -1 0 -0.5 0.7
6 -1 0 224.58 9.7
-6 1 0 206.78 9.9
-6 1 0 208.88 9.1
5 -1 0 177.58 8.9
5 -1 0 172.48 12.1
-5 1 0 166.38 8.3
-5 1 0 182.78 8.8
4 -1 0 552.24 20.6
-4 1 0 549.74 19.5
3 -1 0 879.21 29.7
-3 1 0 872.61 29.2
2 -1 0 65.99 3.2
-2 1 0 70.69 3.2
-1 -1 0 283.87 9.3
-1 -1 0 296.57 10
1 1 0 280.37 10
-2 -1 0 3.7 1
-2 -1 0 0.7 0.8
2 1 0 3.4 0.9
-3 -1 0 1146.79 35.7
3 1 0 1057.99 37.6
-4 -1 0 157.28 7.8
-4 -1 0 142.79 7.8
4 1 0 158.18 8.9
4 1 0 159.38 8
4 1 0 151.78 8.4
-5 -1 0 208.28 9.4
-5 -1 0 224.48 10.3
-5 -1 0 204.68 10.2
5 1 0 233.88 10.3
5 1 0 214.08 9.9
-6 -1 0 1.9 1.2
6 1 0 1.8 1.2
6 1 0 1.3 1.8
7 -2 0 0 0.8
-7 2 0 0.5 1.1
6 -2 0 212.08 9.8
-6 2 0 231.18 10.6
-6 2 0 202.78 9.1
5 -2 0 291.67 12.9
5 -2 0 297.67 13.3
-5 2 0 271.87 13
-5 2 0 304.37 12.8
-5 2 0 318.07 14
4 -2 0 1276.57 42.9
-4 2 0 1254.77 42.3
3 -2 0 6.7 1.3
-3 2 0 7.4 1.4
2 -2 0 1133.19 36.2
-2 2 0 1107.49 36.5
1 -2 0 1913.41 60.49
-1 2 0 1917.51 60.99
-1 -2 0 1.1 0.6
1 2 0 4.2 0.9
-2 -2 0 3265.37 104.79
2 2 0 3263.47 104.79
3 2 0 2.6 2.9
-4 -2 0 609.84 23.1
-4 -2 0 618.94 22.5
4 2 0 604.14 22.5
4 2 0 613.44 22.4
-5 -2 0 23.5 3.2
-5 -2 0 29 3.6
5 2 0 25.3 3.2
5 2 0 32.9 3.5
-6 -2 0 0.7 0.9
6 2 0 0.5 1
6 2 0 -0.4 1
7 -3 0 5 1.2
-7 3 0 6 1.5
6 -3 0 46.1 4.4
-6 3 0 58.09 5.1
-6 3 0 50.99 3.5
-6 3 0 48.6 3.8
5 -3 0 4 2
5 -3 0 4.7 2.2
-5 3 0 4.2 1.8
-5 3 0 4.8 2.7
-5 3 0 5.8 3.1
4 -3 0 72.29 4.4
-4 3 0 71.39 4.5
3 -3 0 3 0.9
-3 3 0 4.8 1.2
2 -3 0 496.25 16.4
2 -3 0 486.35 16.5
-2 3 0 501.65 17.1
1 -3 0 1180.28 37.4
1 -3 0 1118.89 37.2
-1 3 0 1205.28 37.8
-1 -3 0 1531.25 50.69
1 3 0 1582.94 50.69
-2 -3 0 1181.38 40
-3 -3 0 532.65 23
-3 -3 0 573.74 21.1
3 3 0 572.74 24.2
3 3 0 555.14 20.4
-4 -3 0 10.5 2.8
-4 -3 0 17.2 2.7
4 3 0 14.6 2.4
4 3 0 13.6 2.6
-5 -3 0 222.38 9.8
-5 -3 0 227.18 10.1
5 3 0 226.28 9.5
5 3 0 210.78 8.7
7 -4 0 2.6 1
-7 4 0 1.5 1
6 -4 0 31.4 3.6
-6 4 0 32.6 3.2
-6 4 0 34.7 4
5 -4 0 9.9 2.4
-5 4 0 5 1.9
-5 4 0 3.2 1.6
-5 4 0 3.3 2.5
4 -4 0 139.29 6.7
-4 4 0 144.59 7.2
-4 4 0 144.79 7.2
-4 4 0 155.08 8.2
-3 4 0 848.12 29
2 -4 0 822.62 26.2
2 -4 0 767.72 25.7
-2 4 0 789.82 26.7
1 -4 0 7296.17 230.48
0 -4 0 763.92 25.6
-1 -4 0 434.46 16.1
-2 -4 0 542.25 20.6
-3 -4 0 65.59 4.9
-3 -4 0 63.59 6.5
3 4 0 65.79 4.6
3 4 0 68.49 6.1
-4 -4 0 6.2 2.4
-4 -4 0 13.2 2.3
4 4 0 8 1.8
-5 -4 0 78.29 4.3
-5 -4 0 76.59 4
5 4 0 71.49 3.9
-7 5 0 1.3 0.9
6 -5 0 77.79 6
-6 5 0 85.39 4.9
-6 5 0 84.69 5.8
-5 5 0 555.94 20.5
-5 5 0 546.45 21.6
4 -5 0 872.91 30.5
-4 5 0 926.01 31.7
-4 5 0 913.01 32.5
3 -5 0 1293.07 42.5
-3 5 0 1323.47 43.8
2 -5 0 545.45 18.3
1 -5 0 184.38 7.2
0 -5 0 1008.3 33.9
-1 -5 0 1145.99 39.4
-2 -5 0 9 2.3
-2 -5 0 6 2.2
2 5 0 8.1 1.9
2 5 0 8.1 2.5
-3 -5 0 7.2 1.8
3 5 0 8.5 1.7
-4 -5 0 80.99 4.7
-4 -5 0 73.89 5.9
4 5 0 78.19 4.4
-6 6 0 56.19 3.8
-6 6 0 66.89 6
-5 6 0 289.47 12
-5 6 0 285.97 12.9
4 -6 0 142.79 6.3
-4 6 0 158.08 8.8
-4 6 0 148.49 9.6
3 -6 0 348.07 13
-3 6 0 377.06 14.6
2 -6 0 319.77 11.4
-2 6 0 305.67 12.7
1 -6 0 213.48 8.3
-1 6 0 175.78 9
0 6 0 357.66 13.1
-1 -6 0 756.32 28.3
-1 -6 0 837.92 29.3
1 6 0 792.12 28.1
1 6 0 805.42 27.4
-2 -6 0 60.79 4.8
2 6 0 55.89 4.6
2 6 0 61.69 4.1
-3 -6 0 14.4 2.2
3 6 0 17 2.2
-4 -6 0 101.69 5.1
4 6 0 101.09 4.6
4 6 0 100.99 4.8
-6 7 0 24.6 2.4
-6 7 0 28.9 3.7
-5 7 0 2 1.3
-5 7 0 5.1 2.4
-4 7 0 234.58 10.5
-3 7 0 1036.8 37
-3 7 0 992.1 37.8
2 -7 0 6.3 1.5
-2 7 0 8.4 2.6
-2 7 0 7.3 2.2
1 -7 0 23.7 2.7
-1 7 0 24.3 3.3
-1 7 0 23 3.2
0 -7 0 39 4
0 7 0 46.7 4
0 7 0 42.2 4.2
-1 -7 0 144.59 7.5
1 7 0 143.09 7.3
1 7 0 145.39 6.4
1 7 0 137.19 7.6
-2 -7 0 17.8 2.5
2 7 0 14.9 2.4
2 7 0 11 1.9
2 7 0 15.2 1.9
-3 -7 0 5.1 1.2
3 7 0 3.3 1
3 7 0 4.2 1
-6 8 0 4.2 0.8
-5 8 0 0.8 1.2
-4 8 0 202.78 9.2
-3 8 0 32.3 3.5
-2 8 0 4.2 3.8
-2 8 0 1 1.4
-1 8 0 49 4.2
-1 8 0 55.39 6.1
0 -8 0 7.2 2.4
0 8 0 8.3 1.9
0 8 0 3.9 3
-1 -8 0 -0.9 2.1
1 8 0 1.4 1.2
1 8 0 -1.5 2.2
-2 -8 0 11.9 1.6
2 8 0 10.1 1.4
-5 9 0 35.1 2.5
-4 9 0 61.79 4
-3 9 0 59.29 4.1
-3 9 0 49.4 6.2
-2 9 0 68.99 4.6
-2 9 0 68.29 7
-1 9 0 2.3 3.7
-1 9 0 2.8 1.3
0 9 0 52.49 3.6
0 9 0 50.49 5.2
1 9 0 1.1 1.1
1 9 0 0.4 0.8
-4 10 0 7.2 1.1
-3 10 0 2.6 1.1
-3 10 0 0.7 1.6
-2 10 0 2.3 2
-2 10 0 1.8 1
-1 10 0 0.9 2
-1 10 0 0.5 0.8
-1 10 -1 3.9 1.1
-1 10 -1 5.2 2.2
-2 10 -1 5.9 2.4
-2 10 -1 5.8 1.2
-3 10 -1 2.5 1.6
-3 10 -1 0.3 1
-4 10 -1 114.89 4.7
1 9 -1 25 2.4
1 9 -1 25 2.5
0 9 -1 0.9 1.3
0 9 -1 4.3 3.3
-1 9 -1 4.5 3.6
-1 9 -1 1.4 1.4
-2 9 -1 34.1 3.3
-2 9 -1 26 4.3
-3 9 -1 140.29 6.8
-3 9 -1 135.79 8.8
-4 9 -1 8.6 1.7
-5 9 -1 4 1.2
2 8 -1 83.79 4.3
-2 -8 1 89.29 4.5
1 8 -1 207.18 9
1 8 -1 216.08 9.6
-1 -8 1 201.58 10.3
-1 8 -1 9.8 3
-1 8 -1 14 2.5
-2 8 -1 54.89 6
-2 8 -1 62.79 4.7
-3 8 -1 3.9 4.4
-3 8 -1 0.9 1.6
-4 8 -1 31 3.4
-5 8 -1 2 1.3
-6 8 -1 21.9 1.8
3 7 -1 -0.7 0.9
3 7 -1 -0.1 0.7
-3 -7 1 0.9 1
2 7 -1 20.5 2.1
2 7 -1 17.5 2.6
2 7 -1 18.1 2.4
-2 -7 1 15.6 2.3
1 7 -1 38.4 4.1
1 7 -1 40.7 3.6
1 7 -1 32.3 2.8
-1 -7 1 29.7 4
0 7 -1 -3.4 1.7
0 7 -1 2.4 2.9
-1 7 -1 112.49 6.4
-1 7 -1 128.79 6.8
1 -7 1 110.89 5.7
-2 7 -1 66.29 4.7
-2 7 -1 58.79 4.6
2 -7 1 44.5 2.7
-3 7 -1 960 33.1
-4 7 -1 21.3 3.9
-4 7 -1 28.4 3.4
-5 7 -1 2.3 1.5
-5 7 -1 -0.2 2.1
-6 7 -1 0.5 0.9
-6 7 -1 -0.1 1.3
4 6 -1 -0.9 0.8
4 6 -1 -0.3 0.6
-4 -6 1 0.2 0.7
3 6 -1 27 2.6
-3 -6 1 25.6 3
2 6 -1 390.36 15.2
2 6 -1 399.96 15
-2 -6 1 401.66 15.9
1 6 -1 1682.43 54.59
1 6 -1 1619.94 55.39
-1 -6 1 1648.14 55.69
-1 -6 1 1723.93 56.39
0 6 -1 1.2 1.5
0 6 -1 2 2
0 -6 1 -1 0.9
1 -6 1 376.36 13.6
2 -6 1 2 0.7
-3 6 -1 47.5 3.9
3 -6 1 39.4 2.2
-4 6 -1 32.1 3.6
-4 6 -1 39.6 5
4 -6 1 39.3 2.6
-5 6 -1 102.49 7
-5 6 -1 110.99 6.1
-6 6 -1 94.49 6.6
-6 6 -1 97.29 5.1
4 5 -1 45.8 3.2
-4 -5 1 39.9 3.4
3 5 -1 20.8 2.6
-3 -5 1 16.1 2.6
2 5 -1 147.99 7.5
2 5 -1 165.58 7.4
-2 -5 1 153.58 8.5
-2 -5 1 142.29 7.8
-1 -5 1 212.58 9.5
0 -5 1 1756.82 57.29
1 -5 1 0.1 0.5
-2 5 -1 136.79 6.3
2 -5 1 150.08 5.7
2 -5 1 142.79 5.3
-3 5 -1 15.4 2.2
3 -5 1 10.2 1.3
-4 5 -1 847.72 29.9
-4 5 -1 856.01 30.2
-4 5 -1 850.11 30.9
4 -5 1 854.31 28.7
-5 5 -1 14.1 2.5
-5 5 -1 12.2 2.9
-6 5 -1 32.8 3
-6 5 -1 27.4 3.7
6 -5 1 27.4 3.7
-7 5 -1 1.3 0.9
5 4 -1 207.18 8
-5 -4 1 204.28 7.8
-5 -4 1 180.68 8.3
4 4 -1 11.6 2.4
-4 -4 1 12.6 3
-4 -4 1 6.2 2.4
3 4 -1 -0.5 1.3
-3 -4 1 1.6 1.5
-3 -4 1 -0.6 2.7
-2 -4 1 962.2 33.7
-1 -4 1 3955.8 126.79
0 -4 1 2723.43 86.99
1 -4 1 9999 314.97
-2 4 -1 544.85 18.7
2 -4 1 516.95 17.5
2 -4 1 549.05 17.7
-3 4 -1 22.1 2.4
-4 4 -1 19.1 2.7
-4 4 -1 16.9 2.9
-4 4 -1 17.5 2.5
4 -4 1 17.8 2.2
-5 4 -1 44.8 3.9
-5 4 -1 48.7 4.9
-5 4 -1 47.7 5
-5 4 -1 58.79 4.3
5 -4 1 52.29 7.1
5 -4 1 49 4.3
-6 4 -1 0.9 1.7
-6 4 -1 1.2 1.2
6 -4 1 0 1.8
-7 4 -1 2 1.4
7 -4 1 -0.6 1
5 3 -1 20.7 2.8
5 3 -1 23 2.8
-5 -3 1 19.8 2.7
-5 -3 1 21.7 2.6
4 3 -1 163.08 8
4 3 -1 175.18 8.4
-4 -3 1 166.58 8.3
-4 -3 1 165.28 8.9
3 3 -1 4.1 2.1
3 3 -1 8.7 2.4
-2 -3 1 8.8 1.9
-1 -3 1 4.4 1
0 -3 1 240.98 8.7
0 -3 1 243.98 8.5
-1 3 -1 1288.47 41.5
1 -3 1 1245.98 40.7
1 -3 1 1322.27 40.8
-2 3 -1 947.31 31.4
2 -3 1 940.21 30.7
2 -3 1 961.2 30.6
-3 3 -1 4351.86 137.09
3 -3 1 4232.58 136.49
-4 3 -1 806.52 27.9
4 -3 1 780.42 27.6
-5 3 -1 106.09 11.4
-5 3 -1 130.79 7.4
-5 3 -1 128.89 8.6
5 -3 1 130.69 7.5
5 -3 1 141.19 9
-6 3 -1 -2.1 1.5
-6 3 -1 0.1 1.1
-6 3 -1 -0.6 1.1
6 -3 1 1.5 1.6
-7 3 -1 2.3 1.1
7 -3 1 1.9 1
6 2 -1 6.2 1.2
6 2 -1 6.5 1.3
-6 -2 1 4.4 1.1
5 2 -1 45.2 3.9
5 2 -1 43.9 4
-5 -2 1 39.6 3.8
-5 -2 1 39.2 4
4 2 -1 1.4 2.1
4 2 -1 2.8 2
-4 -2 1 5.2 1.9
-4 -2 1 6 2.4
3 2 -1 206.38 9.7
-3 -2 1 202.48 9.5
2 2 -1 1276.57 43.3
-2 -2 1 1346.27 43.4
1 2 -1 339.27 11.7
-1 -2 1 330.37 11.8
0 -2 1 3053.49 96.49
-2 2 -1 643.64 20.9
2 -2 1 628.24 20.5
2 -2 1 590.94 20.5
-3 2 -1 2279.57 74.19
3 -2 1 2318.87 74.19
-4 2 -1 60.89 4.1
4 -2 1 59.19 4.2
-5 2 -1 51.99 4.9
-5 2 -1 43.7 6.9
-5 2 -1 60.69 6
5 -2 1 66.59 5.5
5 -2 1 61.49 5.8
-6 2 -1 2 1.4
-6 2 -1 1.3 1.8
6 -2 1 1.5 1.5
-7 2 -1 132.79 5.9
7 -2 1 134.59 5.6
6 1 -1 -2.3 1.5
6 1 -1 -0.3 1.1
-6 -1 1 -1 1
5 1 -1 6.4 2
5 1 -1 3.9 2.2
-5 -1 1 8.9 2.3
-5 -1 1 8.7 2.4
4 1 -1 39 3.7
4 1 -1 34.3 4.4
4 1 -1 47.2 5.1
-4 -1 1 34.7 3.9
-4 -1 1 45.3 4.7
3 1 -1 403.26 15.3
-3 -1 1 395.36 15.3
2 1 -1 490.75 17.4
-2 -1 1 504.05 17.4
-2 -1 1 499.25 16.2
0 1 -1 878.41 26.9
0 -1 1 846.92 26.9
0 -1 1 822.42 27
-2 1 -1 34 2.1
2 -1 1 35.9 2.1
-3 1 -1 2807.42 89.19
3 -1 1 2756.12 89.69
-4 1 -1 277.87 11.2
4 -1 1 283.87 12.2
-5 1 -1 23 3.8
-5 1 -1 27.4 3.6
-5 1 -1 29.5 3.2
5 -1 1 31.5 4.8
5 -1 1 24.2 3.3
-6 1 -1 192.28 9.2
-6 1 -1 186.88 8.5
6 -1 1 203.38 9
7 -1 1 0.8 0.7
6 0 -1 3.9 1.5
-6 0 1 0.9 2.2
-6 0 1 1.1 1.3
5 0 -1 3540.25 113.49
5 0 -1 2919.81 103.49
-5 0 1 3113.89 103.69
4 0 -1 1736.63 58.99
4 0 -1 1857.51 59.79
-4 0 1 1739.43 58.99
-4 0 1 1777.92 58.59
3 0 -1 63.09 3.9
-3 0 1 62.49 4
2 0 -1 462.25 16.3
-2 0 1 480.55 16.5
-2 0 1 481.45 15.8
1 0 -1 6.9 0.8
-1 0 1 9 0.8
-1 0 1 6.3 0.6
0 0 -1 288.77 10.7
0 0 1 382.76 10.8
-2 0 -1 2569.94 81.89
-2 0 -1 2576.94 81.59
2 0 1 2539.05 81.99
-3 0 -1 1605.14 51.59
-3 0 -1 1569.64 52.29
3 0 1 1592.94 52.59
-4 0 -1 44.5 3.6
-4 0 -1 40.5 4
4 0 1 40.8 4.2
4 0 1 38.4 4
-5 0 -1 628.84 24.4
-5 0 -1 683.13 24.4
-6 0 -1 140.39 7
-6 0 -1 140.59 6.7
6 0 1 138.79 6.9
7 -1 -1 22.7 1.8
-7 1 1 21.2 1.7
6 -1 -1 200.08 9.6
-6 1 1 224.18 10.2
-6 1 1 220.78 9.5
5 -1 -1 4056.79 143.69
-5 1 1 4298.87 139.59
-5 1 1 4591.14 139.49
4 -1 -1 1750.62 58.49
-4 1 1 1759.62 57.69
3 -1 -1 37.4 2.8
-3 1 1 36.8 3.1
-3 1 1 34.6 2.3
2 -1 -1 2246.98 72.39
-2 1 1 2257.27 72.29
-2 1 1 2295.77 72.29
0 -1 -1 811.82 26.2
0 1 1 830.02 26.3
-1 -1 -1 590.14 19
-1 -1 -1 582.84 19.5
1 1 1 587.14 19.5
-2 -1 -1 455.25 15.2
-2 -1 -1 454.65 16.1
2 1 1 452.85 16.2
-3 -1 -1 58.99 3.2
3 1 1 56.99 4.2
-4 -1 -1 2361.56 79.29
-4 -1 -1 2444.96 78.69
4 1 1 2311.87 80.09
4 1 1 2505.85 79.09
-5 -1 -1 62.39 4.9
5 1 1 62.99 4.7
5 1 1 52.09 5.2
-6 -1 -1 42 3
6 1 1 42.4 3
6 1 1 37.2 3.3
7 -2 -1 -1.7 0.9
-7 2 1 0 1
6 -2 -1 31.9 3.6
-6 2 1 32.1 3.1
-6 2 1 38 3.3
-6 2 1 25.8 3.5
5 -2 -1 190.78 9.6
5 -2 -1 206.18 10.2
-5 2 1 206.28 9.5
-5 2 1 210.58 10
4 -2 -1 15.1 2.4
3 -2 -1 875.01 30
-3 2 1 915.91 30
2 -2 -1 375.66 13
-2 2 1 388.56 13.3
-1 -2 -1 183.88 7.1
-1 -2 -1 184.88 6.3
1 2 1 179.78 7.1
-2 -2 -1 1905.31 58.79
-2 -2 -1 1865.71 60.69
2 2 1 1786.62 60.49
-3 -2 -1 1463.65 50.19
3 2 1 1501.05 50.39
-4 -2 -1 1356.26 47.1
-4 -2 -1 1394.96 46.5
4 2 1 1333.97 46.5
4 2 1 1402.16 46.4
-5 -2 -1 45.9 4.2
-5 -2 -1 60.39 4.2
5 2 1 51.39 4.3
5 2 1 51.89 4.1
-6 -2 -1 0.4 0.9
6 2 1 0.5 1.1
6 2 1 1.1 1.2
7 -3 -1 -0.3 1.1
-7 3 1 1.3 1.1
6 -3 -1 49 4.3
-6 3 1 61.69 5.2
-6 3 1 48 3.9
-6 3 1 45.9 3.5
5 -3 -1 3.8 2.2
5 -3 -1 -0.3 2.1
-5 3 1 4.6 1.8
4 -3 -1 2.6 1.2
-4 3 1 3.6 1.3
3 -3 -1 2358.96 75.89
-3 3 1 2365.46 76.19
2 -3 -1 2725.83 85.69
2 -3 -1 2664.13 84.79
-2 3 1 2614.14 85.29
1 -3 -1 7430.76 234.38
-1 -3 -1 77.19 4.1
-1 -3 -1 79.09 3
1 3 1 76.39 4.2
-2 -3 -1 57.19 4.2
-3 -3 -1 113.29 7.1
-3 -3 -1 123.49 7.6
-3 -3 -1 117.79 6.6
3 3 1 106.49 6.3
-4 -3 -1 507.05 20.5
-4 -3 -1 545.85 20.2
4 3 1 534.95 19.8
4 3 1 553.44 20.2
-5 -3 -1 155.38 6.8
-5 -3 -1 165.38 8.2
5 3 1 146.79 6.6
5 3 1 157.08 8.1
7 -4 -1 1.5 1
-7 4 1 3 1.1
6 -4 -1 200.98 8.7
-6 4 1 195.58 8.5
-6 4 1 167.18 6.9
-6 4 1 193.38 9.5
5 -4 -1 144.89 7.6
5 -4 -1 131.69 8.7
-5 4 1 148.49 8.4
-5 4 1 140.89 6.6
-5 4 1 139.49 7.3
4 -4 -1 89.79 5
-4 4 1 92.79 6.1
-4 4 1 88.69 5.5
3 -4 -1 28.2 2.1
-3 4 1 24.4 2.4
2 -4 -1 787.82 26.4
2 -4 -1 780.32 26
-2 4 1 804.22 26.6
1 -4 -1 9.7 1.1
1 -4 -1 7.9 1.5
0 -4 -1 1333.97 43.7
-2 -4 -1 54.69 4.6
-2 -4 -1 61.29 4.7
2 4 1 59.39 4.1
-3 -4 -1 3.3 2.4
-3 -4 -1 0.9 2.9
-3 -4 -1 4.3 3.5
3 4 1 0.3 1.8
3 4 1 -0.5 2.4
-4 -4 -1 22.1 2.9
-4 -4 -1 20.5 3
4 4 1 12.9 2.1
-5 -4 -1 10.4 1.3
-5 -4 -1 12.1 1.6
5 4 1 12.5 1.7
-7 5 1 2 1.1
6 -5 -1 43.6 4.9
-6 5 1 36.7 4.1
-6 5 1 43.4 3.4
-5 5 1 -0.5 2.1
-5 5 1 -1.6 1.3
4 -5 -1 21.1 2.4
-4 5 1 29.2 3.5
-4 5 1 19.7 3.6
3 -5 -1 1119.39 36.9
2 -5 -1 12.7 1.5
1 -5 -1 1522.25 50.09
0 -5 -1 678.33 23.8
-1 -5 -1 3116.69 98.49
1 5 1 2915.01 96.99
-2 -5 -1 37.6 3.9
-2 -5 -1 38.7 4.6
2 5 1 37 4.3
2 5 1 42.6 3.6
-3 -5 -1 20.5 2.9
3 5 1 26.7 3
-4 -5 -1 50.59 4.6
-4 -5 -1 44.3 4.6
4 5 1 55.89 4.3
-6 6 1 24.3 2.7
-6 6 1 24.3 3.6
-5 6 1 0.9 1.5
4 -6 -1 1553.74 51.29
-4 6 1 1531.35 52.49
3 -6 -1 683.73 23.9
-3 6 1 706.73 25
-3 6 1 713.33 25.4
2 -6 -1 65.59 3.8
-2 6 1 61.99 4.8
-2 6 1 85.29 5.1
1 -6 -1 201.38 8.5
-1 6 1 197.18 8.9
-1 6 1 202.28 9.1
0 -6 -1 825.72 29.1
0 6 1 813.52 27.9
0 6 1 842.72 28.9
0 6 1 816.92 28.9
-1 -6 -1 420.46 17.1
-1 -6 -1 395.76 16.1
1 6 1 426.66 15.4
1 6 1 399.16 15.9
-2 -6 -1 291.47 12.2
2 6 1 284.17 11.5
2 6 1 277.77 11.6
-3 -6 -1 2.4 1.3
3 6 1 2 1.1
-4 -6 -1 1.1 0.8
4 6 1 1.5 0.7
4 6 1 1.5 0.7
-6 7 1 20 2.4
-6 7 1 23 2.3
-5 7 1 85.19 5.1
-5 7 1 80.59 5.9
-4 7 1 1.9 1.5
-3 7 1 153.68 11.5
-3 7 1 165.78 8.3
2 -7 -1 -0.6 1.2
-2 7 1 5.8 2
-2 7 1 2.6 3
1 -7 -1 950.3 34.4
-1 7 1 1032.1 35
-1 7 1 1033.8 35
0 -7 -1 180.08 9.1
0 -7 -1 188.18 9.6
0 7 1 201.18 9.8
0 7 1 200.78 9.2
0 7 1 191.88 7.7
-1 -7 -1 -2 1.8
1 7 1 -0.8 2
1 7 1 1.7 1.4
1 7 1 1.2 1.2
-2 -7 -1 70.19 4.6
2 7 1 72.29 3.9
2 7 1 72.69 4.4
2 7 1 66.19 4.9
-3 -7 -1 -0.7 0.8
3 7 1 -0.6 0.7
3 7 1 -0.6 0.7
-6 8 1 19.3 1.6
-5 8 1 30.6 3.8
-4 8 1 133.39 6.8
-3 8 1 4 1.8
-3 8 1 -0.4 4.6
-2 8 1 30.9 4.8
-2 8 1 35.8 3.7
-1 8 1 52.79 6.6
-1 8 1 59.39 4.4
0 -8 -1 0.6 1.9
0 8 1 -1.8 1.3
0 8 1 3.7 3.4
-1 -8 -1 7.2 1.8
1 8 1 11.5 2.3
-2 -8 -1 2 1.3
2 8 1 1.9 0.9
-5 9 1 1.3 0.9
-4 9 1 0.1 1
-3 9 1 2.9 1.4
-3 9 1 1.7 2.4
-2 9 1 26.2 4.2
-2 9 1 29.7 3.1
-1 9 1 5.3 1.5
-1 9 1 4.8 3.4
0 9 1 2.3 1.9
0 9 1 1 1.1
1 9 1 47.7 2.8
1 9 1 54.79 2.9
-4 10 1 0.4 0.7
-3 10 1 2.9 1
-2 10 1 13.6 1.9
-2 10 1 21 2.5
-1 10 1 -0.3 0.8
-1 10 1 0 0.7
0 10 -2 271.27 9.8
-1 10 -2 -0.1 2.4
-1 10 -2 0.5 0.9
-2 10 -2 2.2 1.3
-2 10 -2 5.4 2.7
-3 10 -2 0.2 1.5
-3 10 -2 2.1 1.3
-4 10 -2 2.2 0.9
1 9 -2 155.08 6.3
1 9 -2 150.48 7.2
0 9 -2 -2.3 1.2
0 9 -2 1.5 3.2
-1 9 -2 20.8 2.5
-1 9 -2 13.6 3.6
-2 9 -2 0.1 1.3
-2 9 -2 -1.6 3.3
-3 9 -2 39.3 4.9
-3 9 -2 43.2 3.4
-4 9 -2 7.3 1.6
-5 9 -2 0.9 1
2 8 -2 16.8 2
2 8 -2 19.3 2.2
-2 -8 2 20.3 2.3
1 8 -2 64.29 5.2
1 8 -2 59.89 4.2
-1 -8 2 55.69 4.7
0 8 -2 8.6 3.7
-1 8 -2 16.2 2.7
-1 8 -2 16.8 2.9
-2 8 -2 98.79 6
-2 8 -2 95.69 6.3
-3 8 -2 129.89 6.9
-3 8 -2 119.59 8
-4 8 -2 24.8 3.1
-5 8 -2 -2 1.7
-6 8 -2 58.49 2.9
3 7 -2 0 0.7
3 7 -2 0.9 1
-3 -7 2 0 1
2 7 -2 88.99 5.1
2 7 -2 86.39 5.1
2 7 -2 86.69 4.4
-2 -7 2 82.69 5.3
1 7 -2 27.8 3.2
1 7 -2 28.5 3.6
1 7 -2 26.4 2.6
-1 -7 2 24.7 3.3
0 -7 2 121.39 8
-1 7 -2 52.79 4.4
-1 7 -2 53.29 4.1
1 -7 2 50.39 3.3
-2 7 -2 146.99 7.7
-2 7 -2 143.99 7.3
-3 7 -2 768.42 24.8
-3 7 -2 598.94 28.5
-4 7 -2 212.78 9.8
-4 7 -2 210.98 10.8
-5 7 -2 2.7 2.2
-5 7 -2 -1 1.2
-6 7 -2 0.7 0.9
-6 7 -2 -0.1 1.4
4 6 -2 17.7 2.1
4 6 -2 17.2 1.6
-4 -6 2 18 1.9
3 6 -2 43.7 3.2
-3 -6 2 41.3 3.7
2 6 -2 384.46 15.1
2 6 -2 404.16 14.9
-2 -6 2 405.96 16
1 6 -2 290.67 12.7
1 6 -2 329.77 12.1
-1 -6 2 328.77 13.4
-1 -6 2 319.07 13.5
0 6 -2 24.1 3
0 6 -2 31 3.4
0 -6 2 25 2.6
1 -6 2 942.81 31.2
2 -6 2 134.49 4.8
-3 6 -2 77.09 5
-3 6 -2 77.79 6.9
-4 6 -2 173.88 8.7
-4 6 -2 173.08 9.4
-4 6 -2 178.78 8.9
4 -6 2 153.98 6.3
-5 6 -2 154.08 8.9
-5 6 -2 163.18 7.8
-6 6 -2 4.6 1.2
-6 6 -2 2.3 1.7
4 5 -2 7 1.4
-4 -5 2 6.8 1.6
3 5 -2 105.29 5.8
-3 -5 2 111.69 6.5
2 5 -2 262.57 10.6
2 5 -2 275.77 11.1
-2 -5 2 236.98 11.2
-1 -5 2 5.5 1.6
0 -5 2 1193.88 39.5
1 -5 2 521.45 17.8
1 -5 2 548.05 18.2
-2 5 -2 1.2 0.9
2 -5 2 1.6 0.4
2 -5 2 0.9 0.6
-3 5 -2 151.18 7.3
3 -5 2 152.58 5.7
-4 5 -2 756.52 26.9
-4 5 -2 760.92 26.5
-4 5 -2 735.53 27.5
4 -5 2 723.53 25.2
-5 5 -2 3.2 2
-5 5 -2 2.6 1.6
-6 5 -2 4.3 2
-6 5 -2 4.5 1.3
6 -5 2 5.7 2.2
-7 5 -2 5.4 1.1
5 4 -2 17.2 2
-5 -4 2 12.8 2.1
-5 -4 2 15.5 2
-4 -4 2 135.19 7.7
3 4 -2 272.67 11.2
-3 -4 2 255.77 11.5
-3 -4 2 252.47 12.6
-2 -4 2 38 3.6
-1 -4 2 1054.59 35.4
0 -4 2 38.9 2.3
0 -4 2 39.5 2.9
-1 4 -2 2120.39 67.99
1 -4 2 2043.7 67.19
1 -4 2 2198.38 67.29
-2 4 -2 8.2 1.4
2 -4 2 10.2 0.7
-3 4 -2 24.2 2.6
-4 4 -2 132.49 6.8
-4 4 -2 131.49 7
-4 4 -2 138.49 8
4 -4 2 133.69 6.3
-5 4 -2 3.3 1.6
-5 4 -2 4.8 2.3
-5 4 -2 1.5 2.4
-5 4 -2 3.2 1.6
5 -4 2 4.9 1.8
5 -4 2 1 2.6
-6 4 -2 7.9 2.2
-6 4 -2 13.5 2.1
6 -4 2 11.5 2.2
-7 4 -2 10.1 1.5
7 -4 2 10.3 1.9
5 3 -2 15.8 2.2
5 3 -2 13.4 2.5
-5 -3 2 14.5 2.1
-5 -3 2 17.6 2.5
4 3 -2 268.27 11.3
4 3 -2 259.17 10.8
-4 -3 2 244.08 11
-4 -3 2 241.68 11.8
3 3 -2 25.4 4.1
3 3 -2 20.4 2.8
-3 -3 2 19.8 3.6
-3 -3 2 15 2.8
-2 -3 2 13.8 2.1
-1 -3 2 2326.87 74.79
0 3 -2 287.57 9.2
0 -3 2 263.17 9.4
-1 3 -2 251.77 9
-2 3 -2 5.1 1.1
2 -3 2 4.3 0.7
2 -3 2 4.9 0.7
-3 3 -2 12.8 2
3 -3 2 13.5 1.6
-4 3 -2 282.37 12
-4 3 -2 285.77 16.5
4 -3 2 302.87 11.9
-5 3 -2 0.2 1.4
-5 3 -2 1.8 2.3
5 -3 2 0.6 2
-6 3 -2 16.7 2.2
-6 3 -2 16.2 2.9
-6 3 -2 13.5 1.7
6 -3 2 11.7 2.2
-7 3 -2 9.4 1.4
7 -3 2 9.9 1.4
6 2 -2 2.9 1.1
6 2 -2 2.1 1
-6 -2 2 2 1
5 2 -2 28.3 3.4
5 2 -2 28.2 3.4
-5 -2 2 27.8 3.5
-5 -2 2 27.5 3.3
4 2 -2 278.97 11.6
4 2 -2 272.27 11.9
-4 -2 2 265.17 12.1
-4 -2 2 258.87 11.5
3 2 -2 98.29 6.1
-3 -2 2 103.19 6.1
2 2 -2 5941.91 188.68
1 2 -2 1601.14 51.99
-1 -2 2 1634.24 52.09
-1 2 -2 15.2 1.2
2 -2 2 4906.81 155.28
-3 2 -2 1059.09 35.9
3 -2 2 1090.39 35.8
-4 2 -2 172.48 8.2
4 -2 2 189.18 8.7
-5 2 -2 7 4.4
-5 2 -2 5.9 1.9
-5 2 -2 10.6 3.1
-5 2 -2 5.7 1.8
5 -2 2 8 2.7
5 -2 2 0.9 2.1
-6 2 -2 -0.5 1.1
-6 2 -2 0 1.8
6 -2 2 0.1 1.5
7 -2 2 89.39 4.1
6 1 -2 10.8 1.8
6 1 -2 10.3 1.7
-6 -1 2 7.9 2.3
-6 -1 2 9.4 1.7
5 1 -2 41.8 4.2
5 1 -2 39.8 4
-5 -1 2 39.1 4
-5 -1 2 44.8 4.3
4 1 -2 467.25 18.6
4 1 -2 494.35 18.4
4 1 -2 498.25 19.5
-4 -1 2 475.85 18.8
-4 -1 2 510.15 19.2
3 1 -2 647.04 23.1
-3 -1 2 653.53 23.3
2 1 -2 15.9 1.7
-2 -1 2 16.2 1.7
1 1 -2 2943.71 93.39
0 1 -2 1305.57 41.1
0 -1 2 1286.87 41
-1 1 -2 333.87 11.1
1 -1 2 310.67 10.7
1 -1 2 334.47 10.8
-2 1 -2 581.04 19.5
2 -1 2 575.14 19.4
-3 1 -2 660.33 22.9
3 -1 2 669.43 23.3
-4 1 -2 19.1 3
-4 1 -2 21.2 2.8
-4 1 -2 21 3.1
4 -1 2 13.2 2.3
-5 1 -2 924.61 32
-5 1 -2 848.82 32.7
-5 1 -2 917.01 31.7
5 -1 2 950.4 32.4
-6 1 -2 268.07 11.6
-6 1 -2 275.57 11
6 -1 2 279.47 11.4
6 0 -2 184.48 8.7
6 0 -2 192.08 8.5
-6 0 2 186.28 8.9
-6 0 2 182.58 8.4
5 0 -2 796.02 27.5
5 0 -2 749.33 27.7
5 0 -2 710.53 32.2
-5 0 2 743.43 26.4
-5 0 2 785.42 27.5
4 0 -2 -0.1 1.9
4 0 -2 0.8 1.7
-4 0 2 0.2 1.5
-4 0 2 -0.8 1.5
3 0 -2 177.78 7.8
-3 0 2 179.68 7.9
2 0 -2 292.87 10.9
-2 0 2 321.57 10.3
-2 0 2 289.87 10.8
0 0 -2 83.19 3
0 0 2 78.69 3
-2 0 -2 4254.07 135.19
-3 0 -2 28.5 2.4
3 0 2 33.3 3
4 0 2 57.99 6.1
4 0 2 65.09 5.3
-5 0 -2 444.46 18.3
-5 0 -2 481.35 18.3
5 0 2 471.75 18.2
-6 0 -2 90.19 4.9
6 0 2 89.09 5.1
7 -1 -2 3.2 0.9
-7 1 2 3.4 0.8
6 -1 -2 12.3 2.3
-6 1 2 13.3 2.2
-6 1 2 16 2.6
5 -1 -2 76.79 5.9
-5 1 2 86.19 5.4
-5 1 2 77.69 5.4
4 -1 -2 11.3 2.2
3 -1 -2 19.1 2.1
-3 1 2 17.2 1.7
-3 1 2 19.2 2.4
-1 -1 -2 41.7 2.3
-1 -1 -2 43.8 2.1
1 1 2 45.5 2.5
-2 -1 -2 1335.27 42.8
-2 -1 -2 1327.47 43.6
2 1 2 1307.57 43.7
-3 -1 -2 11.8 2.5
-3 -1 -2 10 1.6
3 1 2 9.5 2.1
-4 -1 -2 1766.92 57.39
-4 -1 -2 1683.83 57.99
4 1 2 1759.82 57.89
4 1 2 1629.34 62.89
4 1 2 1799.12 57.89
-5 -1 -2 692.73 25.7
-5 -1 -2 682.03 24.5
5 1 2 734.63 28.8
5 1 2 722.43 25.5
-6 -1 -2 1.6 1
6 1 2 1.2 1
7 -2 -2 0.8 1
-7 2 2 -0.7 0.9
6 -2 -2 28.3 3.5
-6 2 2 31.2 4.1
-6 2 2 29 3.1
-6 2 2 28.5 3
5 -2 -2 103.59 6.8
5 -2 -2 112.59 7.1
-5 2 2 99.59 7.3
-5 2 2 122.99 7.9
4 -2 -2 19.7 2.6
3 -2 -2 4114.59 133.69
-3 2 2 4274.57 133.59
-1 -2 -2 58.79 3.1
-1 -2 -2 58.49 2.6
-2 -2 -2 289.17 11.6
-2 -2 -2 303.97 10.2
2 2 2 277.67 11.6
-3 -2 -2 349.96 14.9
3 2 2 364.36 15.1
-4 -2 -2 82.19 8
4 2 2 94.09 7.7
4 2 2 83.69 8.1
-5 -2 -2 81.89 4.9
-5 -2 -2 89.59 5.5
5 2 2 85.59 5.1
5 2 2 86.09 5.4
-6 -2 -2 0.2 0.7
6 2 2 -2.1 1.7
7 -3 -2 1.2 1.2
-7 3 2 1.2 1
6 -3 -2 643.84 23.8
-6 3 2 645.24 23.4
-6 3 2 679.73 24.8
-6 3 2 668.23 23
5 -3 -2 142.29 9
5 -3 -2 168.28 10.8
-5 3 2 142.39 9.6
4 -3 -2 101.89 5.6
3 -3 -2 697.83 23.4
-3 3 2 673.93 23.5
2 -3 -2 1948.01 62.39
0 -3 -2 381.16 13.3
-1 -3 -2 30.4 2.4
-1 -3 -2 26.6 1.7
1 3 2 26.1 2.8
-2 -3 -2 47.9 4.7
-3 -3 -2 1383.76 49.5
-3 -3 -2 1526.45 49.5
-3 -3 -2 1481.55 48.5
3 3 2 1375.76 48
3 3 2 1397.36 47.9
-4 -3 -2 1532.95 51.29
-4 -3 -2 1564.14 52.19
4 3 2 1493.45 50.89
4 3 2 1529.75 51.39
-5 -3 -2 2.5 1.3
-5 -3 -2 2.9 1.4
5 3 2 3.4 1.4
5 3 2 2.2 1.3
7 -4 -2 114.79 5
-7 4 2 115.79 5.9
6 -4 -2 312.87 12.4
-6 4 2 300.97 13.2
-6 4 2 308.47 12
-6 4 2 278.07 10.6
5 -4 -2 18.9 3.2
5 -4 -2 23.3 3.2
-5 4 2 21.5 2.8
-5 4 2 21.8 3.6
-5 4 2 20.9 2.8
4 -4 -2 532.45 19.6
-4 4 2 501.55 18.6
3 -4 -2 645.74 22.1
2 -4 -2 592.34 20
1 -4 -2 53.79 2.9
0 -4 -2 3669.23 117.29
-1 -4 -2 240.38 10.1
-2 -4 -2 491.65 18.7
-2 -4 -2 489.65 19.4
2 4 2 497.95 18.2
-3 -4 -2 385.86 15.7
-3 -4 -2 405.56 18.6
-3 -4 -2 415.86 18.9
3 4 2 377.56 15.7
3 4 2 387.16 15.4
-4 -4 -2 97.99 5.6
-4 -4 -2 88.79 5.9
4 4 2 92.79 5.4
-5 -4 -2 0.9 1.1
-5 -4 -2 1.4 1.2
5 4 2 0.7 0.9
-7 5 2 0.1 0.9
6 -5 -2 0.4 2.6
-6 5 2 -0.1 1.5
-6 5 2 -1 1
5 -5 -2 99.79 6.6
-5 5 2 100.19 7
-5 5 2 107.19 6.1
4 -5 -2 332.77 13.1
-4 5 2 337.77 13.9
-4 5 2 350.86 14.7
3 -5 -2 127.99 5.8
2 -5 -2 227.38 8.9
1 -5 -2 769.82 26.3
0 -5 -2 11 1.9
-1 -5 -2 29.8 3.9
-1 -5 -2 30.8 3.5
1 5 2 33.8 3.2
1 5 2 29.2 3.4
-2 -5 -2 19.9 3
-2 -5 -2 20.4 3.6
2 5 2 17.9 3.3
2 5 2 15.7 2.4
-3 -5 -2 -0.3 1.4
3 5 2 4 1.8
-4 -5 -2 23.1 2.4
-4 -5 -2 23.7 3.3
4 5 2 22.1 2.3
-6 6 2 11.5 1.8
-6 6 2 13 2.3
-5 6 2 149.99 10
-5 6 2 145.39 7.5
4 -6 -2 3158.78 105.69
-4 6 2 3354.46 105.79
3 -6 -2 85.19 4.8
-3 6 2 98.19 5.8
2 -6 -2 38.7 3
-2 6 2 42.3 4.6
1 -6 -2 136.79 6.9
-1 6 2 151.58 8.3
-1 6 2 153.78 8.2
0 -6 -2 583.14 25
0 -6 -2 661.43 23.5
0 6 2 636.94 22.9
0 6 2 621.34 22.9
0 6 2 653.03 22
-1 -6 -2 25.2 5
-1 -6 -2 25.9 3.6
1 6 2 26.5 4.4
1 6 2 26.7 3.9
-2 -6 -2 174.68 8.5
2 6 2 171.28 7.9
-3 -6 -2 3.5 1.4
3 6 2 2.3 1.1
-4 -6 -2 2 0.7
4 6 2 1 0.7
4 6 2 1.3 0.6
-6 7 2 86.49 4.3
-6 7 2 82.79 5.4
-5 7 2 108.59 5.9
-4 7 2 2 1.6
3 -7 -2 7.9 1.9
-3 7 2 6 2
-3 7 2 6.7 3.5
2 -7 -2 113.59 6.1
-2 7 2 106.89 9.9
-1 7 2 13.9 3
-1 7 2 13.5 4.6
0 -7 -2 7.6 2.4
0 7 2 12.5 3.2
0 7 2 8.9 2.1
0 7 2 10.5 1.7
-1 -7 -2 183.18 11.4
1 7 2 131.39 8
-2 -7 -2 69.29 4.4
2 7 2 62.89 4.2
2 7 2 68.69 4.2
2 7 2 67.79 3.7
-3 -7 -2 4.6 1.3
3 7 2 4.3 0.7
3 7 2 3.1 1.1
-6 8 2 -0.8 0.6
-5 8 2 2.9 1.3
-4 8 2 -0.4 1.2
-3 8 2 41.1 5.5
-2 8 2 8.1 2.1
-2 8 2 10.8 4.2
0 -8 -2 96.69 5.5
0 8 2 76.99 6.8
0 8 2 84.49 5.2
-1 -8 -2 0 1.3
1 8 2 1 1.2
1 8 2 -1.3 1.4
-2 -8 -2 -0.7 0.8
2 8 2 -0.9 0.7
-5 9 2 0.5 0.9
-4 9 2 0.2 1
-3 9 2 1.6 1.3
-3 9 2 1.6 1.6
-2 9 2 -0.2 1.2
-2 9 2 1.3 2.8
-1 9 2 75.19 6.4
-1 9 2 63.79 4.5
0 -9 -2 27.8 2.8
0 9 2 31.3 2.6
0 9 2 36.6 3.3
1 9 2 66.19 3.2
-3 10 2 7.4 1.2
-2 10 2 35.1 2.4
-2 10 2 35.3 2.4
-1 10 2 1.2 0.7
-1 10 2 0.2 0.7
0 10 -3 39.8 3.1
-1 10 -3 0.8 2.5
-1 10 -3 3.4 1.1
-2 10 -3 -0.2 2.4
-2 10 -3 -0.2 1.3
-3 10 -3 2.2 1.1
-3 10 -3 2.8 2
-4 10 -3 0.4 1.1
1 9 -3 16.2 3
1 9 -3 17.6 2
0 9 -3 7.6 1.7
0 9 -3 9.1 2.8
-1 9 -3 4.9 1.8
-1 9 -3 6.5 3
-2 9 -3 51.29 4
-2 9 -3 46.2 5.8
-3 9 -3 39.5 5.8
-3 9 -3 33.7 3.4
-4 9 -3 3.6 1.4
-5 9 -3 15.5 1.7
2 8 -3 10.9 1.5
2 8 -3 9.8 1.8
-2 -8 3 10.5 1.8
1 8 -3 -0.5 1.3
1 8 -3 -0.2 2.3
-1 -8 3 -0.7 2.5
0 8 -3 12.3 2.7
-1 8 -3 24.2 3.1
-1 8 -3 23 3.2
-2 8 -3 5.5 2.1
-2 8 -3 3.1 1.9
-3 8 -3 329.77 12.9
-3 8 -3 287.07 15
-4 8 -3 7.2 1.9
-5 8 -3 -0.6 1.1
-5 8 -3 -1.5 1.9
-6 8 -3 18.5 1.6
3 7 -3 34.2 2
3 7 -3 35.3 2.7
-3 -7 3 32.5 2.6
2 7 -3 923.31 30.9
2 7 -3 930.21 31.7
2 7 -3 926.11 31.9
-2 -7 3 956 32.4
1 7 -3 120.69 5.4
1 7 -3 129.49 6.8
1 7 -3 118.79 6.5
-1 -7 3 121.59 6.9
0 7 -3 11.7 4
0 7 -3 9 2.6
-1 7 -3 320.57 13
-1 7 -3 309.47 12.8
-2 7 -3 359.66 14.4
-2 7 -3 347.47 14
-3 7 -3 342.37 13.5
-4 7 -3 1381.16 45.6
-4 7 -3 1308.97 46.4
-5 7 -3 39.1 4.5
-5 7 -3 35.2 3.4
-6 7 -3 -0.5 1.3
-6 7 -3 0.7 0.9
4 6 -3 44.5 2.6
4 6 -3 44.8 2.5
-4 -6 3 44.3 2.9
3 6 -3 145.59 6.7
-3 -6 3 155.48 7.6
2 6 -3 336.87 12.8
2 6 -3 332.27 13.3
-2 -6 3 334.57 13.9
1 6 -3 131.59 7
1 6 -3 136.09 6.1
-1 -6 3 125.99 7.4
0 6 -3 193.28 8.9
0 6 -3 193.48 8.9
0 -6 3 194.08 8.3
1 -6 3 790.12 26.2
-2 6 -3 25.3 2.8
-3 6 -3 386.66 15.1
-3 6 -3 393.56 17.2
-3 6 -3 366.46 16
-4 6 -3 -1.1 3.2
-4 6 -3 -0.6 2.6
-4 6 -3 6.5 3.4
-5 6 -3 19.5 2.8
-5 6 -3 20.8 3.4
-6 6 -3 8.2 2.3
-6 6 -3 9.6 2.3
5 5 -3 1 0.6
-5 -5 3 1.3 0.9
4 5 -3 14.8 2
-4 -5 3 12.4 2
3 5 -3 1.3 1.2
-3 -5 3 -0.4 1.6
2 5 -3 10.9 1.9
2 5 -3 15.8 2.7
-2 -5 3 12.4 2.8
-2 -5 3 10 2.6
-1 -5 3 422.66 16.1
0 -5 3 676.93 23.1
-1 5 -3 326.37 11.8
1 -5 3 349.17 11.6
1 -5 3 313.77 11.2
-2 5 -3 1 1
-3 5 -3 354.16 13.9
3 -5 3 346.07 11.8
-4 5 -3 386.16 16.2
-4 5 -3 394.76 15
-4 5 -3 370.86 15.4
4 -5 3 366.36 13.6
-5 5 -3 -1.1 1.4
-5 5 -3 -0.2 1.9
-6 5 -3 49.1 4.5
-6 5 -3 42.5 3.4
-7 5 -3 0.3 0.7
5 4 -3 20.7 2.1
-5 -4 3 19.9 2.1
-5 -4 3 17.9 2.3
-4 -4 3 440.06 17.5
3 4 -3 77.49 5.1
-3 -4 3 76.79 6.5
-3 -4 3 78.89 5.4
-1 -4 3 370.96 13.8
0 -4 3 1242.78 40.9
0 -4 3 1283.27 41.5
1 -4 3 276.07 9
1 -4 3 257.97 8.8
-2 4 -3 153.38 6.7
2 -4 3 157.58 5.3
2 -4 3 154.78 5.3
-3 4 -3 644.04 22.9
-4 4 -3 303.77 12.7
4 -4 3 325.67 12.9
-5 4 -3 36 5.8
-5 4 -3 28.9 3.3
-5 4 -3 33 4.4
5 -4 3 39.5 5.1
5 -4 3 37 4.8
-6 4 -3 9.4 2.3
-6 4 -3 8 1.6
6 -4 3 7.8 2
-7 4 -3 31.7 2.6
5 3 -3 7.3 1.9
5 3 -3 7.1 1.5
-5 -3 3 8.1 1.8
-5 -3 3 9 2.1
4 3 -3 -1.9 1.9
4 3 -3 3.2 1.7
-4 -3 3 0.5 2.2
-4 -3 3 0.3 1.4
3 3 -3 21.5 2.9
-3 -3 3 19.3 2.8
-3 -3 3 16.8 2.8
-1 -3 3 1371.86 44.8
0 -3 3 362.16 12.3
0 -3 3 353.86 12.1
-1 3 -3 147.49 5.8
-2 3 -3 1140.09 37.1
2 -3 3 1096.89 36
2 -3 3 1123.49 36
-3 3 -3 3510.95 115.29
3 -3 3 3666.43 114.59
-4 3 -3 49.7 5
-4 3 -3 58.89 4.2
-4 3 -3 60.29 4.4
4 -3 3 57.99 4.1
-5 3 -3 122.69 7.9
-5 3 -3 115.69 5.8
-5 3 -3 118.39 6.4
-5 3 -3 106.49 6.9
5 -3 3 111.19 6.9
-6 3 -3 28.7 2.5
-6 3 -3 27.7 3.8
6 -3 3 32.1 3.3
-7 3 -3 2.8 1.1
7 -3 3 1.7 0.9
6 2 -3 35.1 2.5
6 2 -3 32.7 2.5
-6 -2 3 33.4 2.7
5 2 -3 286.47 11.8
5 2 -3 297.17 12.1
-5 -2 3 278.37 11.7
-5 -2 3 286.17 12.5
4 2 -3 41.6 4.2
4 2 -3 40.2 4.1
-4 -2 3 37.1 4.6
-4 -2 3 47.3 4.2
3 2 -3 89.19 5.7
-3 -2 3 89.59 5.8
2 2 -3 1623.44 53.39
-2 -2 3 1649.93 53.59
1 2 -3 1571.94 50.19
-1 -2 3 1549.74 50.29
0 2 -3 815.82 26
0 -2 3 788.62 26
0 -2 3 819.62 26.5
-1 2 -3 90.19 3.9
1 -2 3 93.89 3.2
1 -2 3 90.59 3.2
2 -2 3 3725.23 118.19
-3 2 -3 1435.76 47.8
3 -2 3 1456.95 47.6
-4 2 -3 391.16 15.4
4 -2 3 408.16 15.8
-5 2 -3 400.56 15.2
-5 2 -3 403.06 15.3
-5 2 -3 400.06 16.8
-5 2 -3 372.46 16.5
5 -2 3 385.86 16.5
5 -2 3 390.76 15.8
-6 2 -3 9.2 1.6
-6 2 -3 10.3 2.3
6 -2 3 9.4 2.1
7 -2 3 31 2.1
6 1 -3 61.99 4.1
6 1 -3 66.39 3.9
-6 -1 3 69.09 4.3
-6 -1 3 59.99 4.3
5 1 -3 1.9 1.5
5 1 -3 2.1 2
-5 -1 3 1.2 1.6
-5 -1 3 3.2 2
4 1 -3 17.2 3.6
4 1 -3 25.6 3.4
4 1 -3 14.5 3.7
-4 -1 3 22.9 3.2
-4 -1 3 24.8 3.4
3 1 -3 910.51 31.7
-3 -1 3 936.11 31.9
2 1 -3 2924.31 93.19
-2 -1 3 2895.71 93.19
0 -1 3 80.99 3.1
-1 1 -3 722.23 23.8
1 -1 3 769.32 23.5
1 -1 3 688.33 23.5
-3 1 -3 1551.94 51.19
3 -1 3 1565.14 51.49
-4 1 -3 32.3 3.5
-4 1 -3 24.9 2.9
4 -1 3 22.8 3.1
4 -1 3 28.4 3.5
-5 1 -3 1136.09 38.8
-5 1 -3 1082.89 39.6
5 -1 3 1177.48 39.3
-6 1 -3 2.8 1.3
-6 1 -3 4.5 1.9
6 -1 3 4.1 1.5
6 0 -3 61.59 4.6
6 0 -3 55.79 4.1
-6 0 3 56.89 4.5
-6 0 3 61.09 4.2
5 0 -3 610.34 22.3
5 0 -3 585.54 22.6
-5 0 3 596.94 21.5
-5 0 3 603.44 22.4
4 0 -3 56.99 4.6
4 0 -3 53.79 4.7
-4 0 3 53.09 4.4
-4 0 3 50.99 4.3
3 0 -3 2746.53 90.89
-3 0 3 2890.81 91.09
2 0 -3 1612.74 53.09
-2 0 3 1676.83 53.19
-1 0 3 725.03 23.7
0 0 -3 1528.95 49.1
0 0 3 1561.64 49.2
-2 0 -3 685.73 22.7
-2 0 -3 664.63 22.8
2 0 3 673.93 23
-3 0 -3 192.48 7.9
3 0 3 183.58 8.5
-4 0 -3 727.43 27.5
-4 0 -3 772.72 27.2
4 0 3 771.82 28.2
4 0 3 763.02 27.2
-5 0 -3 172.08 9.3
-5 0 -3 195.08 9.1
5 0 3 185.18 8.9
-6 0 -3 22.2 2.7
6 0 3 16.3 2.5
7 -1 -3 15 1.6
-7 1 3 13.9 1.9
-7 1 3 18 1.3
6 -1 -3 52.29 4.2
-6 1 3 46 4.5
-6 1 3 53.29 3.9
5 -1 -3 320.27 13.3
5 -1 -3 252.87 17
-5 1 3 326.87 13.2
-5 1 3 337.87 13
4 -1 -3 393.16 15.5
3 -1 -3 6.3 1.4
-3 1 3 8.7 1.9
2 -1 -3 1496.85 48.1
-2 1 3 1482.85 48.2
1 -1 -3 203.28 7.2
-1 1 3 204.38 7.3
-1 -1 -3 395.06 14
-1 -1 -3 416.76 13.7
1 1 3 399.86 14.1
-2 -1 -3 123.09 5.1
-2 -1 -3 117.19 5.7
2 1 3 119.09 5.7
-3 -1 -3 143.69 6.3
-3 -1 -3 137.39 7.4
3 1 3 128.29 7.3
-4 -1 -3 52.59 4.5
-4 -1 -3 59.59 4.7
4 1 3 48 4.9
4 1 3 44.1 4.3
4 1 3 37.4 5.8
5 1 3 54.79 4.8
-6 -1 -3 17.6 1.9
6 1 3 16.2 1.9
7 -2 -3 13.6 1.8
-7 2 3 14.6 1.5
-7 2 3 17.5 2.1
6 -2 -3 644.74 23.1
-6 2 3 643.14 22.7
-6 2 3 641.24 23.9
-6 2 3 617.84 22.5
5 -2 -3 643.74 26.7
-5 2 3 696.63 28
4 -2 -3 16 2.5
3 -2 -3 4273.37 136.29
2 -2 -3 33.9 2.1
-1 2 3 -0.1 0.6
0 -2 -3 68.39 3.2
0 2 3 68.49 3.3
-1 -2 -3 257.17 10.1
-1 -2 -3 241.98 9
1 2 3 263.77 9.8
-2 -2 -3 65.39 4.3
-2 -2 -3 68.59 3.5
2 2 3 69.49 4.5
-3 -2 -3 118.09 6.6
3 2 3 113.89 7.6
3 2 3 126.79 6.6
-4 -2 -3 134.09 7.1
-4 -2 -3 139.99 7.8
4 2 3 128.49 7.4
4 2 3 138.89 7.3
-5 -2 -3 -1.5 1.7
-5 -2 -3 -0.3 1.3
5 2 3 0.1 1.6
5 2 3 -0.5 1.2
-6 -2 -3 1.1 0.7
7 -3 -3 105.99 5.2
-7 3 3 120.19 6.2
6 -3 -3 348.37 14.6
-6 3 3 385.86 15.5
-6 3 3 369.96 14.2
-6 3 3 372.56 13.8
5 -3 -3 101.89 6.6
5 -3 -3 94.49 7.6
-5 3 3 104.99 5.8
-5 3 3 103.49 5.9
4 -3 -3 7.1 1.8
-4 3 3 2.1 1.8
3 -3 -3 8.2 1.6
2 -3 -3 51.29 2.8
0 -3 -3 3300.87 105.29
-1 -3 -3 6.3 1.1
1 3 3 2.6 1.6
-2 -3 -3 0.7 1.5
-3 -3 -3 1631.64 55.79
-3 -3 -3 1752.02 55.49
3 3 3 1659.63 54.89
3 3 3 1561.34 54.89
-4 -3 -3 357.66 14.7
-4 -3 -3 343.17 14
4 3 3 340.97 13.7
4 3 3 353.56 14.2
-5 -3 -3 -0.6 1.1
-5 -3 -3 2.3 1.5
5 3 3 1.2 1.1
5 3 3 0.8 1.3
7 -4 -3 4.3 1.1
-7 4 3 3.7 1.3
6 -4 -3 -1.1 1.5
-6 4 3 2.1 1.2
-6 4 3 2.4 1.1
-6 4 3 4.1 2
5 -4 -3 28.6 4
5 -4 -3 24.7 4
-5 4 3 30.3 2.9
-5 4 3 28.4 3.4
-5 4 3 23.5 3.6
4 -4 -3 533.95 19.3
-4 4 3 497.75 19.2
-4 4 3 509.25 18.4
3 -4 -3 17.6 1.9
2 -4 -3 6255.87 198.18
1 -4 -3 4709.73 149.79
0 -4 -3 707.73 24.5
-1 -4 -3 1.5 1.1
-2 -4 -3 155.48 8
-2 -4 -3 172.28 9.1
2 4 3 165.88 10.8
2 4 3 153.78 7.6
-3 -4 -3 1375.56 47.9
-3 -4 -3 1374.46 47.2
3 4 3 1411.66 47
3 4 3 1407.76 46.3
-4 -4 -3 32 3.8
-4 -4 -3 33.3 3.2
4 4 3 32.6 3.2
-5 -4 -3 0.2 1.1
5 4 3 0.9 0.8
-7 5 3 6 1.2
6 -5 -3 43 4.7
-6 5 3 38.4 3.2
-6 5 3 40.6 4
5 -5 -3 298.07 12.7
-5 5 3 303.47 12.5
-5 5 3 301.07 13.5
4 -5 -3 217.68 9.4
-4 5 3 207.88 8.5
-4 5 3 222.68 10.8
-4 5 3 210.68 9.8
3 -5 -3 580.84 20
-3 5 3 544.55 20.7
2 -5 -3 810.52 27.7
1 -5 -3 3424.26 109.99
0 -5 -3 13.4 2.2
-1 -5 -3 770.72 28.4
1 5 3 707.63 25.7
-2 -5 -3 1137.59 42.8
-2 -5 -3 1146.99 39.6
2 5 3 1160.48 39.1
-3 -5 -3 1.3 1.5
3 5 3 1.1 1.3
-4 -5 -3 0.1 0.9
-4 -5 -3 -0.3 1.6
4 5 3 -0.6 0.7
6 -6 -3 0.2 2.3
-6 6 3 0.8 1.6
-6 6 3 2 1.6
-5 6 3 23.1 3.4
4 -6 -3 114.79 6.3
-4 6 3 129.39 7
3 -6 -3 259.17 10.6
-3 6 3 254.27 11.3
-3 6 3 255.57 11.2
2 -6 -3 0.4 1.2
-2 6 3 0.3 1.5
-2 6 3 -2.4 2.5
1 -6 -3 465.25 17
-1 6 3 421.36 16.7
-1 6 3 421.96 15.6
-1 6 3 446.86 17
0 -6 -3 -1.5 2.2
0 -6 -3 0.6 1.5
0 6 3 0.9 1.6
0 6 3 -0.1 1.3
0 6 3 -1.2 1.9
-1 -6 -3 -0.2 2.6
-1 -6 -3 8.9 2.3
1 6 3 2.6 1.5
1 6 3 2.1 1.9
2 6 3 50.49 4.3
-3 -6 -3 14.7 2.2
3 6 3 10.2 1.7
-6 7 3 50.79 3.1
-5 7 3 5.5 1.6
-4 7 3 14 2.5
-3 7 3 -1 1.5
-3 7 3 -1.5 2.7
2 -7 -3 10.7 2.4
-2 7 3 8.3 3.8
-2 7 3 11.4 2.3
1 -7 -3 -0.1 2.8
1 -7 -3 -1.4 1.7
-1 7 3 1.6 3.2
-1 7 3 1.3 1.7
0 -7 -3 94.49 6.1
0 7 3 94.59 4.9
0 7 3 100.39 7
0 7 3 99.69 5.9
-1 -7 -3 310.67 12.9
1 7 3 316.17 11.9
1 7 3 310.87 12.8
1 7 3 320.27 12.8
-2 -7 -3 53.99 4.3
2 7 3 49.99 3.6
2 7 3 56.59 3.7
2 7 3 49.6 3.8
-3 -7 -3 1 0.7
3 7 3 0.9 0.7
-6 8 3 22.3 1.6
-5 8 3 15.2 2
-4 8 3 33.8 3.3
-3 8 3 14.2 3
-3 8 3 13.1 2.2
-2 8 3 88.09 8.6
1 -8 -3 204.38 9.1
-1 8 3 209.18 9.4
-1 8 3 195.78 10.4
0 -8 -3 47.4 4
0 8 3 53.79 4.6
0 8 3 59.29 4.1
-1 -8 -3 6.4 1.5
1 8 3 4 1.4
1 8 3 7.4 1.6
-2 -8 -3 3.1 0.9
2 8 3 1.9 0.7
-5 9 3 22.1 1.8
-4 9 3 4.4 1.2
-3 9 3 9.6 2.3
-3 9 3 7.9 1.6
-2 9 3 42.9 5.2
-2 9 3 54.19 3.9
-1 9 3 49.5 4.5
-1 9 3 57.19 3.8
0 9 3 211.48 8.2
0 9 3 191.88 8
-3 10 3 1.4 0.8
-2 10 3 -0.3 0.8
-2 10 3 -0.4 0.7
0 10 -4 5.1 2
-1 10 -4 4.2 2.7
-2 10 -4 65.19 3.5
-2 10 -4 64.59 5.3
-3 10 -4 1.9 2.5
-3 10 -4 2 1.3
1 9 -4 17.1 2.3
1 9 -4 17.1 2.6
0 9 -4 38.4 4.5
0 9 -4 38.9 3.2
-1 9 -4 165.18 7.4
-1 9 -4 161.68 8
-2 9 -4 6.4 2.7
-2 9 -4 9.2 2
-3 9 -4 0.1 1.4
-3 9 -4 0.7 3.2
-4 9 -4 16 1.9
-5 9 -4 63.09 3.3
2 8 -4 108.19 5.5
2 8 -4 92.79 4.9
-2 -8 4 94.49 4.8
1 8 -4 10.9 2.1
1 8 -4 12 2.3
-1 -8 4 11.1 3.3
0 8 -4 8.3 2.6
0 8 -4 12.1 2.7
-1 8 -4 321.27 13.1
-1 8 -4 319.47 13.1
-2 8 -4 -0.8 1.6
-2 8 -4 0 1.9
-3 8 -4 69.89 5
-4 8 -4 145.09 7
-4 8 -4 134.89 7.7
-5 8 -4 49.6 4.1
-5 8 -4 47.4 3.3
3 7 -4 40.2 2.4
3 7 -4 37.8 3.4
-3 -7 4 41.5 3
2 7 -4 53.29 3.1
2 7 -4 49 4
2 7 -4 54.69 4.1
-2 -7 4 50.69 4.2
1 7 -4 166.08 7.8
1 7 -4 151.98 6.3
1 7 -4 160.48 7.9
-1 -7 4 159.78 8.1
0 7 -4 34.4 4.3
0 -7 4 33.4 4.8
-1 7 -4 44.5 3.9
-1 7 -4 50.29 4.2
1 -7 4 42.1 2.7
-2 7 -4 279.17 11.7
-2 7 -4 282.97 12
-3 7 -4 288.77 13.9
-3 7 -4 321.77 16.4
-4 7 -4 889.41 32.5
-4 7 -4 909.01 31.4
-5 7 -4 2.1 1.4
-5 7 -4 4.2 2.1
-6 7 -4 7.7 1.6
-6 7 -4 6.6 1.3
4 6 -4 8.4 1.2
4 6 -4 5.9 1
-4 -6 4 8.3 1.3
3 6 -4 23.3 2.4
-3 -6 4 27 3.2
2 6 -4 6.3 1.5
2 6 -4 6.6 2.2
-2 -6 4 7.3 2.2
1 6 -4 463.95 17.7
1 6 -4 471.85 16.6
-1 -6 4 469.05 18
-1 -6 4 469.45 18.2
0 6 -4 355.86 14.9
-2 6 -4 977.1 33.2
-3 6 -4 322.57 13.6
-3 6 -4 341.87 13.6
-3 6 -4 347.37 15.1
-4 6 -4 141.49 10.3
-4 6 -4 92.39 8.4
-4 6 -4 112.19 8.5
-6 6 -4 165.28 9.4
-6 6 -4 159.08 6.9
5 5 -4 38 1.9
-5 -5 4 27 2
4 5 -4 1.3 1
-4 -5 4 0.6 1.2
3 5 -4 7.3 1.6
-3 -5 4 9.9 2.3
2 5 -4 196.08 8.5
2 5 -4 182.28 8.7
-2 -5 4 178.78 9
-2 -5 4 202.08 9.8
0 -5 4 993.9 33
-1 5 -4 790.82 27.8
1 -5 4 878.01 27.4
-3 5 -4 29.7 3.1
3 -5 4 27.8 1.6
-4 5 -4 33.4 4.4
-4 5 -4 27.9 3.7
-4 5 -4 34.7 3.9
4 -5 4 30.4 2.6
-5 5 -4 4.2 2.1
-5 5 -4 8.4 2
-6 5 -4 188.88 8.1
-6 5 -4 198.68 9.6
5 4 -4 16.5 2
-5 -4 4 16.6 2
-5 -4 4 11.8 2
-4 -4 4 162.08 8.7
3 4 -4 -0.9 1.3
-3 -4 4 0.6 1.7
-3 -4 4 0.6 2.6
-2 -4 4 19.1 2.9
0 4 -4 3.7 0.8
0 -4 4 3.3 1.4
0 -4 4 2.8 0.7
-1 4 -4 163.38 6.6
1 -4 4 171.88 5.8
1 -4 4 161.38 5.7
-2 4 -4 19.3 2.2
2 -4 4 22.1 1.2
-3 4 -4 841.92 29.3
3 -4 4 839.32 27.9
-4 4 -4 45.9 4.6
-4 4 -4 48.9 4.2
4 -4 4 42 3.4
-5 4 -4 22.8 3.5
-5 4 -4 29.5 3.3
5 -4 4 24.2 3.5
-6 4 -4 25.7 2.6
-6 4 -4 26.5 3.6
6 -4 4 19.1 3
-7 4 -4 16.1 1.9
5 3 -4 3 1.8
5 3 -4 -2 1
-5 -3 4 0.5 1.1
-5 -3 4 -0.6 1.5
4 3 -4 1 1.7
4 3 -4 1.8 2.1
-4 -3 4 3.7 2.6
-4 -3 4 0.6 1.7
-3 -3 4 5.9 2.3
-2 -3 4 851.31 29.8
0 3 -4 32.4 1.8
0 -3 4 38.6 2.4
-1 3 -4 508.15 17.4
1 -3 4 508.35 16.4
-2 3 -4 590.74 20.6
2 -3 4 595.14 19.6
2 -3 4 591.84 19.5
-4 3 -4 146.29 7.3
-4 3 -4 151.68 7.8
-4 3 -4 148.09 8.5
4 -3 4 152.18 7.4
-5 3 -4 68.89 8.8
-5 3 -4 58.49 4
-5 3 -4 63.09 5.7
-5 3 -4 62.79 4.6
5 -3 4 59.79 5
5 -3 4 72.19 7.3
-6 3 -4 14.4 2
-6 3 -4 12.9 2.5
6 -3 4 10.7 2.1
7 -3 4 0.1 1
6 2 -4 47.5 3
6 2 -4 44.6 3.6
-6 -2 4 51.69 3.1
5 2 -4 127.89 6.8
5 2 -4 122.79 6.5
-5 -2 4 129.29 7.2
-5 -2 4 124.59 6.6
4 2 -4 25.3 3.3
4 2 -4 25 3.2
-4 -2 4 12.7 2.7
-4 -2 4 18.4 2.8
3 2 -4 285.57 15.5
-3 -2 4 264.47 12.6
2 2 -4 26.9 2.5
-2 -2 4 20.6 2.2
1 2 -4 461.65 14.7
1 2 -4 450.05 15.5
0 2 -4 2391.06 76.09
0 -2 4 2403.06 76.09
-1 2 -4 1022.5 33.9
1 -2 4 1045 33.3
1 -2 4 1046.3 33.2
-2 2 -4 1429.86 45.5
2 -2 4 1384.46 44.9
2 -2 4 1351.66 45
-3 2 -4 1323.87 44
3 -2 4 1312.87 43.7
-4 2 -4 146.89 8.1
-4 2 -4 141.29 7
-4 2 -4 150.98 7.1
-4 2 -4 140.09 7.4
4 -2 4 149.09 7.7
-5 2 -4 548.35 21.6
-5 2 -4 559.84 20
-5 2 -4 537.95 20
5 -2 4 539.05 20.6
-6 2 -4 2 1.2
-6 2 -4 6.3 2
6 -2 4 1.1 1.4
6 1 -4 59.89 3.6
6 1 -4 57.29 3.9
-6 -1 4 57.39 3.8
-6 -1 4 58.09 4
5 1 -4 16.6 2.8
5 1 -4 18.4 2.9
-5 -1 4 19.1 2.9
-5 -1 4 23.1 3
4 1 -4 52.39 4.4
4 1 -4 57.69 5
4 1 -4 52.99 5.6
-4 -1 4 55.99 4.4
-4 -1 4 54.59 4.7
3 1 -4 1191.68 40.8
-3 -1 4 1230.48 41.1
1 1 -4 164.78 6.3
-1 -1 4 171.88 6.4
-3 1 -4 2927.91 93.09
3 -1 4 2839.32 93.19
-4 1 -4 70.39 4.9
-4 1 -4 77.09 5.2
-4 1 -4 64.19 5.6
4 -1 4 67.19 5.3
4 -1 4 65.79 5.1
-5 1 -4 216.68 11
-5 1 -4 239.08 10.3
5 -1 4 227.98 10.5
-6 1 -4 16.5 2.5
-6 1 -4 16 2.2
6 -1 4 14.3 2.2
6 0 -4 30.8 3
6 0 -4 27.9 3.6
-6 0 4 26.2 3.4
-6 0 4 26.4 2.9
5 0 -4 43.2 4.8
5 0 -4 39.4 4.1
-5 0 4 36.7 4
-5 0 4 34 4.1
4 0 -4 447.46 17.5
4 0 -4 447.66 17.2
-4 0 4 461.25 16.8
-4 0 4 429.16 16.9
-4 0 4 424.26 17.1
3 0 -4 598.84 20.8
-3 0 4 564.84 20.9
2 0 -4 831.02 27.9
-2 0 4 841.92 28
0 0 -4 341.37 11.9
0 0 4 367.76 12.1
-1 0 -4 1007.1 33
-1 0 -4 1034.2 33.1
1 0 4 1004.8 33.1
-2 0 -4 540.05 18.7
-2 0 -4 544.45 18.9
2 0 4 540.15 19
-3 0 -4 624.54 21.9
-4 0 -4 128.29 6.9
-4 0 -4 89.09 10.1
4 0 4 126.69 7.7
4 0 4 127.19 6.7
-5 0 -4 19.2 2.8
5 0 4 20.3 2.9
-6 0 -4 80.49 4.3
6 0 4 75.19 4.4
7 -1 -4 12.7 1.4
-7 1 4 12.3 1.2
-7 1 4 7.9 1.3
6 -1 -4 33.1 3.4
-6 1 4 33 3.3
5 -1 -4 186.98 9.3
5 -1 -4 183.98 10.2
-5 1 4 194.48 9
-5 1 4 174.58 8.6
4 -1 -4 1169.28 38.7
4 -1 -4 983.5 40.3
-4 1 4 1192.28 38.5
3 -1 -4 2504.05 81.69
-3 1 4 2551.54 82.19
-2 1 4 773.82 25.9
-1 -1 -4 34.3 2.1
-1 -1 -4 32.4 2.2
-2 -1 -4 138.99 6.5
-2 -1 -4 138.19 6
2 1 4 145.49 6.7
-3 -1 -4 1124.89 37.4
3 1 4 1114.49 39
-4 -1 -4 5 2
-4 -1 -4 3.9 2.4
4 1 4 2.2 2.4
4 1 4 2.6 1.9
4 1 4 6.8 3.4
-5 -1 -4 1.1 1.4
5 1 4 1.3 1.5
5 1 4 1.8 2.1
-6 -1 -4 130.89 5.5
6 1 4 123.99 5.5
7 -2 -4 83.29 4
-7 2 4 94.79 4.5
-7 2 4 84.39 3.6
6 -2 -4 3.1 1.6
-6 2 4 5.2 1.5
-6 2 4 6 1.6
5 -2 -4 177.38 8.8
5 -2 -4 158.98 9.3
-5 2 4 170.58 8.2
-5 2 4 169.88 8.3
4 -2 -4 60.69 4.4
-4 2 4 66.99 4.6
3 -2 -4 557.14 19.6
2 -2 -4 52.09 2.9
1 -2 -4 222.78 8
-1 2 4 206.78 8
0 -2 -4 1119.39 36.9
0 2 4 1136.99 37
-1 -2 -4 1460.55 48.6
-1 -2 -4 1488.85 48.1
1 2 4 1505.85 48.8
-2 -2 -4 1247.88 41.5
-2 -2 -4 1245.58 40.2
2 2 4 1183.68 41.5
-3 -2 -4 33.4 4.2
-3 -2 -4 47.5 4
3 2 4 38 5.2
3 2 4 48.2 5.7
3 2 4 37.8 4.1
-4 -2 -4 450.35 17.1
-4 -2 -4 430.46 17.5
4 2 4 463.05 17.3
4 2 4 430.06 17.3
-5 -2 -4 128.09 6.7
5 2 4 118.09 8.5
5 2 4 129.69 6.2
7 -3 -4 5.5 1.1
-7 3 4 6.2 1.3
6 -3 -4 26.5 3.2
-6 3 4 30.5 3.7
-6 3 4 28.8 2.8
-6 3 4 22.4 2.8
5 -3 -4 86.89 5.9
5 -3 -4 90.69 6.3
-5 3 4 85.79 5.5
-5 3 4 94.39 5.4
4 -3 -4 12.2 2
-4 3 4 11.7 2.3
-4 3 4 13.2 2.2
3 -3 -4 192.38 8.1
2 -3 -4 272.17 10.2
1 -3 -4 55.79 3.1
0 -3 -4 392.96 14.2
0 3 4 396.46 14.3
-1 -3 -4 150.38 6.8
-1 -3 -4 141.89 6
1 3 4 139.29 7
-2 -3 -4 368.46 15.2
-3 -3 -4 674.83 23.4
-3 -3 -4 612.34 23.7
3 3 4 612.14 23.1
3 3 4 636.44 23
-4 -3 -4 89.29 7.2
4 3 4 114.49 8.8
4 3 4 104.59 7
-5 -3 -4 81.99 4.4
5 3 4 72.69 3.8
5 3 4 82.89 4.5
7 -4 -4 70.29 3.4
-7 4 4 61.69 3.5
6 -4 -4 611.44 21.6
-6 4 4 561.84 20
-6 4 4 593.54 21.1
-6 4 4 612.54 22.4
5 -4 -4 158.28 8.4
-5 4 4 173.08 8.2
-5 4 4 160.18 7.3
4 -4 -4 89.79 6.5
4 -4 -4 100.09 5.6
-4 4 4 89.29 5.3
3 -4 -4 67.99 4.1
1 -4 -4 4845.02 154.28
-1 -4 -4 322.57 13.3
-2 -4 -4 18 2.6
-2 -4 -4 15.5 3.4
2 4 4 16.8 2.6
2 4 4 6.9 4.2
-3 -4 -4 145.09 8.3
-3 -4 -4 141.19 7.5
3 4 4 145.59 7.4
3 4 4 149.59 7.5
-4 -4 -4 8.1 1.8
-4 -4 -4 9.8 2.6
4 4 4 9.9 2
-5 -4 -4 1.2 1.6
5 4 4 0.4 0.7
-7 5 4 116.29 5.4
6 -5 -4 6.3 1.7
-6 5 4 3.2 1.3
-6 5 4 3.4 1.8
5 -5 -4 87.09 6
-5 5 4 98.89 6.6
-5 5 4 87.29 5.3
-5 5 4 85.79 4.4
4 -5 -4 16.5 3.5
4 -5 -4 20.4 2.8
-4 5 4 17.3 2.8
-4 5 4 20.1 2.3
-4 5 4 14.3 3.5
3 -5 -4 945.71 31.1
-3 5 4 853.31 31.2
2 -5 -4 124.19 6.1
1 -5 -4 14.8 2.2
0 -5 -4 42.8 3.7
0 5 4 43.3 3.9
-1 -5 -4 2275.87 76.99
-1 -5 -4 2425.96 78.19
1 5 4 2304.47 76.89
1 5 4 2382.96 76.59
-2 -5 -4 3095.59 101.49
-2 -5 -4 3362.76 113.39
2 5 4 3016.1 100.89
2 5 4 3009.9 100.79
-3 -5 -4 462.95 17.7
-3 -5 -4 461.45 18.3
3 5 4 482.15 17.6
-4 -5 -4 0.1 0.9
-4 -5 -4 -1.6 1.6
4 5 4 -0.2 0.7
6 -6 -4 -0.8 1.7
-6 6 4 1.1 1.6
-6 6 4 -0.3 0.9
5 -6 -4 1.6 2.3
-5 6 4 2.3 2.5
-5 6 4 0.2 1.3
-4 6 4 44.4 4.1
3 -6 -4 713.73 25.5
-3 6 4 713.63 25.7
-3 6 4 721.33 26
2 -6 -4 227.78 10
-2 6 4 207.48 9.2
-2 6 4 224.98 10.3
-2 6 4 273.37 11.1
1 -6 -4 4.5 1.8
-1 6 4 6.4 2.3
-1 6 4 3.8 1.5
-1 6 4 3.7 2
0 -6 -4 51.09 4.7
0 -6 -4 56.19 4.9
0 6 4 48.8 4.1
0 6 4 55.49 3.9
0 6 4 48.6 4.2
-1 -6 -4 -0.2 1.8
1 6 4 -1.9 1.2
1 6 4 -1 1.6
1 6 4 -0.9 1.2
-2 -6 -4 592.84 21.8
2 6 4 579.04 21.1
2 6 4 608.04 21.3
-3 -6 -4 0.3 1
3 6 4 0.7 0.8
3 6 4 -0.4 0.9
-6 7 4 11.6 1.5
-5 7 4 21.1 2.6
-3 7 4 148.09 7.9
-3 7 4 149.69 7.8
-2 7 4 115.89 7.5
-2 7 4 126.09 7
1 -7 -4 10.3 2.6
-1 7 4 13.8 3.8
-1 7 4 9.1 1.6
-1 7 4 8.3 2.2
0 -7 -4 67.79 5
0 7 4 70.39 5
0 7 4 69.69 4.1
0 7 4 71.59 5.6
-1 -7 -4 1.3 1.5
1 7 4 0.5 1
1 7 4 -0.3 1.7
1 7 4 0.8 1.4
-2 -7 -4 18.3 2.3
2 7 4 18.9 2.2
2 7 4 18.1 1.8
-5 8 4 20.7 2.3
-4 8 4 10.2 1.8
-3 8 4 1.7 1.4
-3 8 4 1.2 1.6
-2 8 4 1.2 2.8
-2 8 4 0.2 1.3
1 -8 -4 103.49 5.9
-1 8 4 91.29 5.6
-1 8 4 93.39 6.1
0 -8 -4 40.5 4.4
0 8 4 47.2 4.1
0 8 4 41.8 3.4
-1 -8 -4 52.49 3.4
1 8 4 53.19 3.4
1 8 4 50.79 3.3
-4 9 4 51.79 3.2
-3 9 4 -0.7 0.9
-3 9 4 0.5 1.2
-2 9 4 3.9 1.2
-2 9 4 3.3 1.4
-1 9 4 12.9 1.8
-1 9 4 18.8 2.3
0 -9 -4 103.89 5.3
0 9 4 113.39 5.6
0 9 4 112.99 5.5
0 10 -5 182.68 7.3
-1 10 -5 596.94 20.7
-2 10 -5 126.19 6.7
1 9 -5 -1.8 2
0 9 -5 294.17 11.1
0 9 -5 298.97 12
-1 9 -5 224.08 9.6
-1 9 -5 219.88 10.2
-2 9 -5 13.9 2.7
-2 9 -5 11.8 2.4
-3 9 -5 1 1.5
-3 9 -5 0.2 2.7
-4 9 -5 26.2 2.5
2 8 -5 -3.6 1.5
2 8 -5 1.1 2.5
-2 -8 5 -0.1 1.1
1 8 -5 40.6 4.5
1 8 -5 35.5 3.2
-1 -8 5 31.1 3.9
0 8 -5 32.5 3.8
-1 8 -5 3.2 2.2
-1 8 -5 2.1 1.5
-2 8 -5 14.7 2.7
-2 8 -5 16.5 2.6
-3 8 -5 387.56 16.4
-4 8 -5 268.77 11.8
-4 8 -5 276.37 11
-5 8 -5 123.19 5.5
-5 8 -5 120.69 6.3
3 7 -5 3.8 1.4
3 7 -5 4.5 1
-3 -7 5 5.7 1.3
2 7 -5 12.1 2.2
2 7 -5 8.1 1.9
2 7 -5 9.6 1.3
-2 -7 5 6.6 1.9
1 7 -5 798.92 27.3
1 7 -5 761.32 27
-1 -7 5 751.02 27.3
0 7 -5 35.6 3.8
-1 7 -5 97.69 6.2
-1 7 -5 101.79 6
1 -7 5 95.89 4.3
-2 7 -5 284.37 12
-2 7 -5 289.27 12.2
-3 7 -5 11.9 4
-3 7 -5 9.2 3.2
-3 7 -5 17.8 2.8
-3 7 -5 9.7 3.1
-4 7 -5 187.88 8.7
-4 7 -5 189.28 10.1
-5 7 -5 45.7 4.6
-5 7 -5 46 3.6
-6 7 -5 2.2 1
-6 7 -5 2.3 1.4
4 6 -5 43.5 2.4
-4 -6 5 51.19 3
3 6 -5 6.3 1.3
-3 -6 5 8 2
2 6 -5 18.3 2.7
2 6 -5 20 2.5
-2 -6 5 20.5 2.9
1 6 -5 321.67 11.8
1 6 -5 324.67 12.8
1 6 -5 292.47 12.7
-1 -6 5 330.07 13.3
-1 -6 5 322.17 13.4
0 6 -5 162.48 8.8
0 -6 5 174.98 8.4
-1 6 -5 9.5 2
1 -6 5 5.4 1
-2 6 -5 640.74 24.1
-2 6 -5 593.44 21.9
-3 6 -5 636.34 24.9
-3 6 -5 648.24 23.6
-3 6 -5 684.63 24.2
-4 6 -5 30.4 4.2
-4 6 -5 38.3 4.4
-4 6 -5 29.8 3.7
-5 6 -5 106.59 7.1
-5 6 -5 88.89 5.4
-6 6 -5 72.69 3.9
-6 6 -5 78.59 5.2
5 5 -5 47.2 2.4
4 5 -5 189.98 8.1
-4 -5 5 200.68 8.7
3 5 -5 556.94 20.4
-3 -5 5 577.34 21.4
2 5 -5 71.09 5.1
2 5 -5 75.29 4.7
-2 -5 5 71.79 5.4
-2 -5 5 71.29 5.5
-1 -5 5 610.24 21.9
0 -5 5 90.79 4.4
-1 5 -5 5812.52 185.58
1 -5 5 5738.33 184.68
1 -5 5 6001.1 184.98
-2 5 -5 1577.74 52.19
-3 5 -5 5.6 4
-3 5 -5 3.5 1.6
3 -5 5 5.4 0.9
-4 5 -5 79.49 5.7
-4 5 -5 83.39 6.1
-4 5 -5 77.99 5.2
4 -5 5 81.09 4.2
-5 5 -5 0.1 1.6
-5 5 -5 2.2 2
-6 5 -5 80.69 4.5
-6 5 -5 82.89 5.6
5 4 -5 99.29 4.7
-5 -4 5 94.89 5.2
-5 -4 5 96.59 4.8
4 4 -5 267.97 12.4
-4 -4 5 257.27 14.5
-4 -4 5 243.28 11.8
3 4 -5 1.5 1.5
-3 -4 5 -2.2 2.6
-3 -4 5 -0.3 1.6
2 4 -5 38.7 4.3
-2 -4 5 42.4 3.8
-1 -4 5 371.46 13.8
0 4 -5 438.66 14.7
0 -4 5 430.96 15
-1 4 -5 29.3 2.3
1 -4 5 31.5 1.6
1 -4 5 31.9 1.8
-2 4 -5 444.06 16.3
2 -4 5 434.16 14.7
2 -4 5 451.55 14.8
3 -4 5 11 1.5
-4 4 -5 106.99 7.1
-4 4 -5 107.79 5.8
-4 4 -5 103.69 6.6
4 -4 5 106.09 5.7
-5 4 -5 10.4 2.1
-5 4 -5 8.6 2.6
5 -4 5 3.6 2.7
-6 4 -5 36.6 4.2
6 -4 5 40.2 3.5
5 3 -5 1.3 1.1
-5 -3 5 -0.2 1.1
-5 -3 5 -1.4 2
4 3 -5 17.1 2.6
4 3 -5 21.5 3
-4 -3 5 16.7 2.7
-4 -3 5 18 3.3
3 3 -5 62.99 4.4
3 3 -5 55.89 5.1
-3 -3 5 56.09 4.7
-3 -3 5 58.79 5
-2 -3 5 956 33.2
-1 -3 5 181.18 7.4
0 3 -5 2920.61 95.19
0 -3 5 3020.9 95.59
0 -3 5 3053.69 95.29
-1 3 -5 2675.43 87.09
1 -3 5 2707.23 85.99
1 -3 5 2756.72 85.99
-2 3 -5 299.87 11.5
2 -3 5 297.67 10.5
2 -3 5 296.47 10.6
-3 3 -5 5.5 1.6
3 -3 5 2.7 1.1
-4 3 -5 145.19 6.8
-4 3 -5 154.78 7.4
-4 3 -5 145.19 8.5
4 -3 5 154.48 7.6
-5 3 -5 1.7 1.4
-5 3 -5 -0.7 1.5
-5 3 -5 5.6 2.1
5 -3 5 1 2.1
-6 3 -5 19 2.8
6 -3 5 26.2 3.2
6 2 -5 2.4 1
-6 -2 5 4.1 1.2
5 2 -5 1.9 1.6
5 2 -5 2.5 1.7
-5 -2 5 1.8 1.8
-5 -2 5 -0.3 1.4
4 2 -5 83.29 5.5
4 2 -5 90.59 5.8
-4 -2 5 83.19 6
-4 -2 5 91.49 5.7
-3 -2 5 399.66 16
2 2 -5 10.8 1.8
-2 -2 5 7.8 1.6
1 2 -5 2455.45 78.89
-1 -2 5 2490.35 79.19
0 2 -5 1770.52 56.39
0 -2 5 1751.42 56.29
-1 2 -5 172.48 6.6
1 -2 5 149.88 6.5
1 -2 5 170.58 6.1
-2 2 -5 8.3 1.6
2 -2 5 11.2 1.3
3 -2 5 886.51 30.3
-4 2 -5 356.36 14.6
-4 2 -5 364.56 14.9
4 -2 5 350.56 14.3
4 -2 5 361.56 15.1
-5 2 -5 233.08 11.5
-5 2 -5 239.28 10
5 -2 5 227.98 10.5
-6 2 -5 10.8 1.9
-6 2 -5 6.7 2.1
6 -2 5 6.1 1.7
6 1 -5 27 2.5
6 1 -5 24 2.7
-6 -1 5 23.8 2.9
-6 -1 5 29.9 2.8
5 1 -5 5.7 2
5 1 -5 3.1 2.1
-5 -1 5 5.5 2.1
-5 -1 5 3.3 1.8
4 1 -5 1.2 1.9
4 1 -5 7.1 2.1
-4 -1 5 3.4 1.8
-4 -1 5 4.8 2.1
3 1 -5 5 1.7
-3 -1 5 11.5 2.3
2 1 -5 1995.2 63.29
-2 -1 5 1910.91 63.39
1 1 -5 1.6 0.7
-1 -1 5 1.3 0.6
-1 1 -5 2704.73 84.79
1 -1 5 2602.14 84.49
-2 1 -5 1287.37 42.2
2 -1 5 1269.77 42
-3 1 -5 181.48 8.6
3 -1 5 186.98 8.4
-4 1 -5 0.1 4.3
-4 1 -5 -1.3 1.7
-4 1 -5 2.9 1.5
-4 1 -5 1 1.9
4 -1 5 1 1.7
4 -1 5 2.6 1.9
-5 1 -5 -0.3 1.3
-5 1 -5 -0.2 2.3
5 -1 5 0.4 1.8
-6 1 -5 70.99 4
6 -1 5 88.99 5.4
6 0 -5 29.6 3
6 0 -5 34.3 3.4
-6 0 5 29.5 3.1
5 0 -5 246.48 11.6
5 0 -5 267.57 11.6
-5 0 5 264.57 10.9
-5 0 5 262.57 11.5
4 0 -5 946.01 37.1
4 0 -5 923.91 34.1
4 0 -5 920.91 32.8
-4 0 5 923.21 31.7
-4 0 5 908.61 32
3 0 -5 2145.49 67.89
-3 0 5 2003.6 68.99
2 0 -5 954.3 31.6
-2 0 5 950 31.8
0 0 -5 2339.47 76.19
0 0 5 2443.86 76.39
-1 0 -5 732.93 24.8
-1 0 -5 762.52 24.9
1 0 5 741.73 24.9
-2 0 -5 2949.6 93.99
-2 0 -5 2954.8 93.79
2 0 5 2859.91 93.99
-3 0 -5 53.39 4.1
3 0 5 55.49 4.3
-4 0 -5 49.9 6
-4 0 -5 62.39 4.8
4 0 5 53.99 5.5
4 0 5 54.99 4.6
-5 0 -5 68.19 6.4
5 0 5 68.29 6.3
-6 0 -5 85.49 4.2
6 0 5 84.79 4.5
-7 1 5 2.5 0.7
-7 1 5 1.7 0.9
6 -1 -5 14.5 2.3
-6 1 5 10.3 1.8
5 -1 -5 245.48 13.3
5 -1 -5 270.07 11.7
-5 1 5 248.78 10.8
-5 1 5 258.97 11.3
4 -1 -5 72.89 5.2
4 -1 -5 73.29 5.1
-4 1 5 69.29 5
3 -1 -5 483.85 17.5
-3 1 5 480.65 17.9
2 -1 -5 1.9 0.8
-2 1 5 1.4 1
1 -1 -5 551.14 18.5
-1 1 5 545.75 18.7
0 -1 -5 548.95 18.8
0 1 5 562.54 18.9
-1 -1 -5 3475.55 112.69
1 1 5 3588.64 112.99
-2 -1 -5 9431.06 298.87
3 1 5 426.86 17.2
-4 -1 -5 -2.1 2.9
-4 -1 -5 -0.6 1.6
4 1 5 0.1 4.1
4 1 5 0.2 2.6
4 1 5 1.6 1.7
-5 -1 -5 6.3 1.9
5 1 5 4.6 1.5
5 1 5 5.3 2.5
-6 -1 -5 20.7 1.9
6 1 5 23.1 1.8
7 -2 -5 3.8 0.9
-7 2 5 5.6 1.2
6 -2 -5 30 3.3
-6 2 5 31.5 2.9
5 -2 -5 163.68 8.3
5 -2 -5 144.49 8.7
-5 2 5 150.08 7.5
-5 2 5 147.79 7.6
4 -2 -5 482.85 18.8
4 -2 -5 524.05 19
-4 2 5 502.25 18.6
-4 2 5 477.95 18.9
3 -2 -5 237.88 9.7
2 -2 -5 2342.47 74.59
-2 2 5 2295.07 74.69
1 -2 -5 597.24 20.5
-1 2 5 615.24 20.7
0 -2 -5 80.49 4.1
0 2 5 89.89 4.3
-1 -2 -5 1676.93 53.59
-1 -2 -5 1674.53 54.19
1 2 5 1603.34 54.29
-2 -2 -5 42.9 3.2
-2 -2 -5 46.2 4
2 2 5 48.6 4.2
-3 -2 -5 379.36 15.3
-3 -2 -5 376.06 14.8
3 2 5 370.76 14.9
3 2 5 354.66 16.4
3 2 5 379.76 14.8
-4 -2 -5 7 2.3
-4 -2 -5 7.1 2.2
4 2 5 7.9 2.1
4 2 5 9.9 2.2
-5 -2 -5 101.79 5.5
5 2 5 97.49 5.7
5 2 5 104.49 5.6
7 -3 -5 1.9 0.9
-7 3 5 0.8 0.9
6 -3 -5 39.3 3.7
-6 3 5 40 3.1
-6 3 5 39.7 4.1
-6 3 5 37.9 3.2
5 -3 -5 4 2
-5 3 5 1.5 1.7
-5 3 5 4.1 1.6
4 -3 -5 115.39 8.8
4 -3 -5 133.79 7.4
-4 3 5 150.68 8.6
-4 3 5 136.19 7.7
3 -3 -5 284.87 11.2
2 -3 -5 36.7 2.7
1 -3 -5 3693.53 117.99
0 -3 -5 572.64 19.5
0 3 5 525.25 19.5
-1 -3 -5 200.08 8.7
-1 -3 -5 198.98 7.9
1 3 5 177.08 9.4
-2 -3 -5 153.18 8.4
-2 -3 -5 154.28 7.6
2 3 5 138.19 7.1
-3 -3 -5 3.1 2.4
3 3 5 6.8 2.9
3 3 5 1.6 3.2
-4 -3 -5 27.2 3.4
-4 -3 -5 18.3 2.6
4 3 5 20.4 2.8
4 3 5 22.7 3
-5 -3 -5 116.79 5.2
5 3 5 99.89 5.8
7 -4 -5 90.09 4.2
-7 4 5 111.49 4.7
6 -4 -5 107.39 6
-6 4 5 108.49 5.5
-6 4 5 113.99 6.5
-6 4 5 106.89 5.5
5 -4 -5 40 4.4
-5 4 5 43.6 3.5
-5 4 5 40.5 3.8
4 -4 -5 4.5 2.5
4 -4 -5 2.4 1.5
-4 4 5 5.5 1.7
-4 4 5 3 1.7
3 -4 -5 579.64 20.9
2 -4 -5 39.8 3.1
1 -4 -5 7 1.5
0 -4 -5 105.09 5.7
-1 -4 -5 1950.3 65.79
1 4 5 2000.9 65.09
-2 -4 -5 29.4 3.7
-2 -4 -5 31.2 4.7
-2 -4 -5 23.7 4.2
2 4 5 27.7 3.4
2 4 5 25.7 3.5
2 4 5 30.1 3.9
-3 -4 -5 671.83 25
-3 -4 -5 701.63 24.8
3 4 5 673.93 23.9
3 4 5 663.83 24.5
-4 -4 -5 255.37 10.9
4 4 5 272.17 10.8
6 -5 -5 215.48 9.3
-6 5 5 229.08 10.3
-6 5 5 223.58 9.9
-5 5 5 1.1 1.4
4 -5 -5 591.54 22.1
4 -5 -5 589.34 22.7
-4 5 5 580.94 22.2
-4 5 5 584.04 23.8
-4 5 5 598.94 20.7
3 -5 -5 1635.34 51.09
3 -5 -5 1435.36 50.79
-3 5 5 1538.55 50.69
-3 5 5 1465.75 50.79
2 -5 -5 1808.72 59.79
1 -5 -5 114.09 6.3
-1 5 5 122.59 7
0 -5 -5 162.98 8.2
0 -5 -5 147.19 7.6
0 5 5 144.09 7.2
0 5 5 142.29 9.7
0 5 5 138.19 8.2
-1 -5 -5 528.85 20.6
-1 -5 -5 478.85 19.3
1 5 5 520.95 19.4
1 5 5 514.35 18.9
-2 -5 -5 923.51 32.1
2 5 5 901.41 31.4
2 5 5 891.31 31.5
-3 -5 -5 636.04 23.4
-3 -5 -5 681.63 25.1
3 5 5 649.54 23.3
-4 -5 -5 21.5 3.5
-4 -5 -5 23.1 1.9
4 5 5 29.7 2.1
6 -6 -5 16.2 2
-6 6 5 15.4 2.2
-6 6 5 19.6 2
5 -6 -5 7.5 2.2
-5 6 5 6.6 1.7
-5 6 5 4.5 2.6
4 -6 -5 218.68 10.3
-4 6 5 226.08 10.1
3 -6 -5 5160.88 155.68
-3 6 5 4588.54 152.58
-3 6 5 4679.03 153.98
2 -6 -5 1216.78 40.2
2 -6 -5 1139.29 39.8
-2 6 5 1136.19 39.8
-2 6 5 1158.28 38.6
-2 6 5 1176.48 39.9
1 -6 -5 147.89 7.8
1 -6 -5 134.79 7.5
-1 6 5 133.89 7.2
-1 6 5 145.89 7.8
-1 6 5 140.79 6.6
0 6 5 0.2 2.6
0 6 5 1.3 3
0 6 5 0.7 1.8
-1 -6 -5 476.95 18.1
1 6 5 459.15 17.4
1 6 5 458.15 17.6
1 6 5 468.85 17.8
-2 -6 -5 236.28 10.4
2 6 5 239.08 10.1
2 6 5 243.68 10
2 6 5 235.48 9.9
-3 -6 -5 21.3 2.3
3 6 5 24.2 2.2
3 6 5 28.3 2.2
-6 7 5 -0.3 0.7
-5 7 5 5.3 1.5
-4 7 5 34 3.5
-3 7 5 94.29 5.9
-3 7 5 106.99 6.1
2 -7 -5 26.6 3.5
-2 7 5 23.4 3.5
-2 7 5 30.5 3.5
1 -7 -5 108.59 6.4
-1 7 5 114.99 5.4
-1 7 5 108.09 6.4
-1 7 5 124.89 7
0 7 5 4.9 2.6
0 7 5 3.5 2.5
-1 -7 -5 3.7 1.5
1 7 5 3 1.6
1 7 5 2.3 1.3
1 7 5 3.5 1.2
-2 -7 -5 65.89 3.9
2 7 5 62.49 3.7
2 7 5 65.49 3.3
-5 8 5 5.6 1.2
-4 8 5 13.8 2
-3 8 5 0.3 1.3
-3 8 5 2.5 1.5
2 -8 -5 19.2 4
-2 8 5 19.7 2.7
-2 8 5 19.1 2.9
1 -8 -5 11.2 2.3
-1 8 5 15.2 2.7
-1 8 5 11.9 2.2
0 -8 -5 14.5 2.1
0 8 5 15.4 2.2
0 8 5 19 2.4
-1 -8 -5 11.8 1.6
1 8 5 13.9 1.8
-4 9 5 45.3 3.2
-3 9 5 4.6 1.2
-2 9 5 0.1 0.9
-2 9 5 -0.5 1
-1 9 5 30.9 2.5
-1 9 5 34.4 2.6
0 9 5 12.4 1.5
0 10 -6 4.1 1.9
-1 10 -6 263.47 10.3
-2 10 -6 43.7 4.8
1 9 -6 62.39 4.7
0 9 -6 168.68 8.7
-1 9 -6 24 3
-2 9 -6 16.9 2.7
-2 9 -6 15.2 2.3
-3 9 -6 -0.5 2.3
-3 9 -6 -0.6 1.7
2 8 -6 10.5 1.9
-2 -8 6 11.5 2.1
1 8 -6 22.2 2.7
-1 -8 6 16.9 2.6
0 8 -6 702.23 25.1
0 8 -6 749.82 29.1
-1 8 -6 121.39 6.6
-2 8 -6 71.79 4.9
-3 8 -6 237.58 10
-3 8 -6 244.08 10.1
-3 8 -6 236.08 11.1
-4 8 -6 176.58 7.9
-4 8 -6 160.58 8.5
-5 8 -6 372.76 13.9
-5 8 -6 350.16 12.7
-3 -7 6 16.5 2.1
2 7 -6 58.59 6.6
2 7 -6 60.19 4
2 7 -6 55.39 2.9
-2 -7 6 51.59 4.1
1 7 -6 1714.83 56.19
1 7 -6 1687.43 55.59
-1 -7 6 1659.23 56.09
0 7 -6 494.35 20.7
0 7 -6 510.35 18.6
0 -7 6 452.85 17.6
-1 7 -6 -1.6 2.7
-1 7 -6 1.2 1.7
-2 7 -6 31.6 4.4
-2 7 -6 31.8 3.8
-2 7 -6 39.3 4.6
-3 7 -6 11.8 2.5
-3 7 -6 13.9 4.9
-3 7 -6 9.3 2.5
-3 7 -6 9.3 2.9
-4 7 -6 442.96 18.2
-5 7 -6 367.96 15.5
-5 7 -6 372.26 15.2
-6 7 -6 -0.1 1.1
4 6 -6 35.2 2.3
-4 -6 6 31.1 2.5
3 6 -6 48.1 5.2
3 6 -6 43.6 3.1
-3 -6 6 45.5 3.8
2 6 -6 503.15 17.6
2 6 -6 489.95 18.2
-2 -6 6 482.65 18.8
1 6 -6 9.6 2.2
1 6 -6 7.1 1.6
-1 -6 6 7.7 2
-1 -6 6 6.5 2.9
0 6 -6 630.74 23
0 -6 6 642.44 22.6
-1 6 -6 264.07 11.2
1 -6 6 262.47 9.5
-2 6 -6 13.5 2.5
-2 6 -6 11.6 2.3
-2 6 -6 13.6 3.2
-3 6 -6 48.3 4.6
-3 6 -6 41.1 4.3
-3 6 -6 48.3 5.2
-4 6 -6 140.39 7.2
-4 6 -6 152.08 8.9
-5 6 -6 68.49 4.5
-5 6 -6 68.69 5.6
-6 6 -6 14.5 2.2
4 5 -6 20.1 2.2
-4 -5 6 19.9 2.6
3 5 -6 396.96 15.4
-3 -5 6 423.76 16.5
2 5 -6 236.78 9.6
2 5 -6 213.28 9.9
-2 -5 6 219.68 10.4
-2 -5 6 232.98 10.9
1 5 -6 134.39 7.3
-1 -5 6 147.19 7.1
0 -5 6 107.19 5.1
-1 5 -6 1923.41 62.39
-2 5 -6 940.21 32.3
-3 5 -6 23.1 3.2
-3 5 -6 30.4 4.1
3 -5 6 21.7 1.7
-4 5 -6 -1.1 2
-4 5 -6 1.1 1.9
-4 5 -6 3.2 1.9
4 -5 6 1.9 1.2
-5 5 -6 13.9 3.1
-6 5 -6 83.69 6.7
5 4 -6 4.3 1
-5 -4 6 2.5 1.6
-5 -4 6 1.6 0.9
4 4 -6 150.58 7.5
-4 -4 6 148.69 8.5
-4 -4 6 163.28 7.9
-3 -4 6 39 6.3
-3 -4 6 28.2 4.2
2 4 -6 218.38 9.2
-2 -4 6 216.18 9.9
-2 -4 6 210.58 12.8
-1 -4 6 227.58 9.4
0 4 -6 34.8 2.4
0 -4 6 39.6 2.4
-1 4 -6 2373.36 77.39
1 -4 6 2456.05 76.49
1 -4 6 2368.36 76.39
-2 4 -6 5.3 1.5
2 -4 6 3.3 0.9
2 -4 6 2.7 0.7
-3 4 -6 76.19 5
3 -4 6 74.09 3.9
-4 4 -6 63.49 5.2
-4 4 -6 61.89 4.6
-4 4 -6 56.79 5.4
4 -4 6 60.49 4.2
-5 4 -6 78.99 6.2
-5 4 -6 73.99 4.8
5 -4 6 68.59 5.3
-6 4 -6 68.99 5.4
6 -4 6 72.79 4.4
5 3 -6 17.5 2.4
-5 -3 6 13.9 2
-5 -3 6 16.7 2.5
4 3 -6 147.89 7.7
4 3 -6 149.88 7.5
-4 -3 6 150.18 7.8
-4 -3 6 156.08 8.4
3 3 -6 266.27 11.6
3 3 -6 272.17 11.6
-3 -3 6 257.27 11.9
-3 -3 6 307.87 16.2
-2 -3 6 7.7 1.7
1 3 -6 459.25 15.2
-1 -3 6 476.45 16.7
0 3 -6 116.19 5.2
0 -3 6 133.99 5.3
0 -3 6 130.69 6.6
-1 3 -6 1464.95 48.7
1 -3 6 1476.95 47.9
1 -3 6 1527.25 48
-2 3 -6 34.4 2.8
2 -3 6 32.5 2.2
-3 3 -6 50.39 3.9
3 -3 6 48 3.3
-4 3 -6 189.78 8.2
-4 3 -6 192.08 8.8
-4 3 -6 198.08 10.1
-4 3 -6 198.18 9.8
4 -3 6 210.58 9.5
4 -3 6 194.18 10.3
-5 3 -6 9.4 2.7
-5 3 -6 13.2 2.3
-5 3 -6 12.7 1.9
5 -3 6 11.6 2.6
-6 3 -6 1.6 2.2
6 -3 6 4.3 1.5
6 2 -6 2.8 1
-6 -2 6 2.9 1.1
5 2 -6 132.29 6.6
5 2 -6 125.99 6.9
-5 -2 6 126.59 6.6
-5 -2 6 128.99 7.2
4 2 -6 143.19 9.4
4 2 -6 134.39 8.3
-4 -2 6 127.79 7.8
-3 -2 6 170.78 8.6
2 2 -6 50.39 3.7
-2 -2 6 48.3 3.4
1 2 -6 977.5 31.6
1 2 -6 973.3 32.1
-1 -2 6 971.5 32.3
0 2 -6 4522.15 143.39
-1 2 -6 976.5 32.6
1 -2 6 986.2 32.1
-2 2 -6 27.1 2.4
2 -2 6 25.2 2.1
-3 2 -6 652.63 23.2
3 -2 6 625.04 22.7
-4 2 -6 179.38 9.7
-4 2 -6 173.18 9.2
-4 2 -6 186.08 8.4
-4 2 -6 187.68 8.3
4 -2 6 184.98 8.9
4 -2 6 194.38 9.5
-5 2 -6 26.8 3.1
-5 2 -6 26.9 3.8
5 -2 6 28 3.6
-6 2 -6 73.09 4.8
-6 2 -6 67.99 3.5
6 -2 6 76.59 4.5
6 1 -6 5.6 1.3
6 1 -6 4.3 1.4
-6 -1 6 6.3 1.4
-6 -1 6 4 1.5
5 1 -6 532.35 19.7
-5 -1 6 520.55 20.1
4 1 -6 119.99 7.1
4 1 -6 110.19 6.7
-4 -1 6 117.79 7.1
-4 -1 6 123.99 6.9
3 1 -6 0.5 1.7
-3 -1 6 -0.5 1.5
2 1 -6 1026.3 34.2
-2 -1 6 1018.9 34.5
1 1 -6 34.1 2.3
-1 -1 6 35 2.3
0 1 -6 7826.12 246.88
-1 1 -6 807.62 26.9
1 -1 6 796.52 26.7
-2 1 -6 157.48 7
2 -1 6 156.48 6.8
-3 1 -6 101.69 5.8
3 -1 6 107.19 5.9
-4 1 -6 5.5 2.8
-4 1 -6 2.5 1.6
-4 1 -6 -0.3 2.1
4 -1 6 -0.7 2
4 -1 6 -0.2 1.8
-5 1 -6 22.3 3
5 -1 6 26.4 3.5
-6 1 -6 33.1 2.4
6 -1 6 36.3 2.9
6 0 -6 26.5 3.4
6 0 -6 33.5 3
-6 0 6 28.8 2.9
5 0 -6 134.49 7.8
5 0 -6 152.38 7.6
-5 0 6 144.49 7.3
-5 0 6 134.69 7.5
4 0 -6 267.97 12.2
4 0 -6 279.27 11.8
-4 0 6 282.07 11.3
-4 0 6 262.37 11.6
-4 0 6 265.47 11.8
3 0 -6 9.3 1.9
-3 0 6 6.1 1.9
2 0 -6 885.71 29.6
-2 0 6 876.11 29.9
1 0 -6 416.96 14.5
-1 0 6 415.96 14.7
0 0 -6 23 2
0 0 6 25.7 1.9
-1 0 -6 684.13 22.9
-1 0 -6 663.73 22.8
1 0 6 673.63 23
-2 0 -6 3.5 1.3
2 0 6 6.1 1.5
-3 0 -6 48.4 3.8
3 0 6 41.9 4
-4 0 -6 11 2.4
4 0 6 8.6 2.3
4 0 6 9.5 3
-5 0 -6 291.17 12
5 0 6 286.77 12.2
-6 0 -6 5.2 1
6 0 6 4.3 1.2
6 -1 -6 73.39 4.7
-6 1 6 77.39 4.6
5 -1 -6 416.86 16.2
-5 1 6 378.46 15.1
-5 1 6 392.26 15.7
4 -1 -6 87.89 6
4 -1 -6 96.99 6
-4 1 6 83.69 5.5
-4 1 6 93.19 6.3
-4 1 6 105.69 6.5
3 -1 -6 4423.36 134.99
-3 1 6 3994.8 135.89
2 -1 -6 3963 126.19
-2 1 6 3950.6 126.39
1 -1 -6 588.14 20.1
-1 1 6 595.64 20.3
0 -1 -6 207.28 8
0 1 6 205.88 8.2
-1 -1 -6 3340.67 106.19
-1 -1 -6 3243.58 106.39
1 1 6 3378.06 106.69
-2 -1 -6 47.6 3.9
-2 -1 -6 44.5 3.4
2 1 6 44.7 3.9
-3 -1 -6 1.4 2
-3 -1 -6 3.1 1.9
-3 -1 -6 -0.4 1.6
3 1 6 -1.2 2
3 1 6 2.7 1.9
-4 -1 -6 23.9 3.3
-4 -1 -6 23 3.2
4 1 6 19 3.3
4 1 6 23.5 3.3
-5 -1 -6 38.8 3.4
5 1 6 38.9 3.5
5 1 6 37.5 4.2
-6 -1 -6 1.7 0.7
6 1 6 1.9 0.8
7 -2 -6 8 1.2
-7 2 6 12.2 1.7
6 -2 -6 8 1.8
-6 2 6 5.3 1.4
5 -2 -6 1.9 1.7
-5 2 6 1 1.7
-5 2 6 0.3 1.3
4 -2 -6 478.35 20
4 -2 -6 514.75 19.3
-4 2 6 492.25 18.5
-4 2 6 511.65 18.8
3 -2 -6 2486.25 80.79
2 -2 -6 32.4 2.5
-2 2 6 32.9 3
1 -2 -6 414.96 15.2
-1 2 6 440.66 16.8
0 -2 -6 0.9 0.8
0 2 6 0.4 1.1
-1 -2 -6 1.6 1
-1 -2 -6 2.3 1.2
-2 -2 -6 57.59 5
-2 -2 -6 59.89 4
2 2 6 66.49 5.2
-3 -2 -6 0.3 1.9
-3 -2 -6 3.3 2
3 2 6 -0.6 1.6
3 2 6 0.5 1.8
-4 -2 -6 207.68 9.4
-4 -2 -6 204.38 9.9
4 2 6 216.38 10
4 2 6 204.18 9.4
-5 -2 -6 1 1.1
5 2 6 0.3 1.1
5 2 6 -0.6 1.4
7 -3 -6 4.5 1
-7 3 6 2.4 1
6 -3 -6 121.79 6.3
-6 3 6 119.69 5.6
-6 3 6 108.09 5.5
5 -3 -6 2.1 1.8
-5 3 6 -0.2 1.4
-5 3 6 1.2 1.5
4 -3 -6 2.3 1.5
4 -3 -6 4.1 2.2
-4 3 6 0.4 1.4
-4 3 6 1.2 1.7
3 -3 -6 549.85 20
2 -3 -6 446.46 16.2
1 -3 -6 140.99 6.5
0 -3 -6 2315.67 79.39
0 3 6 2588.84 84.09
-1 -3 -6 102.79 5.3
-2 -3 -6 125.79 8
-2 -3 -6 125.79 7.5
-2 -3 -6 143.39 7.1
2 3 6 100.39 9.2
2 3 6 120.79 7.6
-3 -3 -6 66.79 5
-3 -3 -6 56.39 5.2
3 3 6 67.19 4.8
3 3 6 58.99 4.8
-4 -3 -6 98.99 6
-4 -3 -6 104.29 5.5
4 3 6 107.59 6
4 3 6 101.49 5.5
-5 -3 -6 91.69 4.4
5 3 6 90.39 4.4
6 -4 -6 4.4 1.7
-6 4 6 6.1 1.8
-6 4 6 3.3 1.8
-6 4 6 4 1.3
5 -4 -6 14.3 2.6
-5 4 6 19.5 2.6
-5 4 6 21.4 2.8
4 -4 -6 0.8 1.6
-4 4 6 -1.6 1.7
-4 4 6 1.2 1.4
3 -4 -6 28.6 3
-3 4 6 26.1 3.1
2 -4 -6 3.8 1.3
1 -4 -6 950.1 32.7
0 -4 -6 1034.4 35.8
-1 -4 -6 321.77 14.1
1 4 6 333.07 13.5
-2 -4 -6 141.29 8.6
-2 -4 -6 147.29 9
-2 -4 -6 151.08 10
2 4 6 150.98 9.7
2 4 6 154.78 8.2
2 4 6 151.38 7.7
-3 -4 -6 0.2 2.3
-3 -4 -6 2.4 2.1
3 4 6 0.3 2.3
-4 -4 -6 147.19 6.7
-4 -4 -6 161.98 7.3
4 4 6 169.28 7.2
6 -5 -6 106.79 5.6
-6 5 6 112.49 5.9
-6 5 6 111.79 5.2
5 -5 -6 6.4 2
-5 5 6 1.4 1.2
-5 5 6 -0.3 2.3
-5 5 6 1.8 1.4
4 -5 -6 1888.61 63.99
4 -5 -6 1961.9 64.29
-4 5 6 1910.41 63.59
-4 5 6 1935.71 62.69
3 -5 -6 471.05 17.7
3 -5 -6 476.55 17.7
-3 5 6 453.85 17.3
-3 5 6 448.96 16.6
-3 5 6 421.26 17.2
2 -5 -6 949.4 34.8
-2 5 6 1019.1 33.5
-2 5 6 990.4 35.9
-2 5 6 982.9 34
1 -5 -6 18.7 2.9
1 -5 -6 24.6 3.3
-1 5 6 27.4 3.5
-1 5 6 25.1 2.9
0 -5 -6 49.7 4.4
0 -5 -6 47.8 4.6
0 5 6 47.7 3.8
0 5 6 49.8 4.3
0 5 6 50.39 4.1
-1 -5 -6 45.3 5.4
-1 -5 -6 46.8 5.6
1 5 6 37.8 4.3
1 5 6 39.1 4.6
-2 -5 -6 11 2.4
2 5 6 14.6 2.4
-3 -5 -6 -2.2 2.1
-3 -5 -6 1.1 1.2
3 5 6 -0.3 1
-4 -5 -6 6.2 1.3
4 5 6 7.3 1.1
4 5 6 8.6 1.1
6 -6 -6 9.8 1.6
-6 6 6 14.9 1.8
5 -6 -6 46.4 4
-5 6 6 50.09 3.8
4 -6 -6 100.69 6.4
-4 6 6 104.69 6.1
3 -6 -6 517.25 19.6
3 -6 -6 497.55 19.2
-3 6 6 496.25 17.7
-3 6 6 524.65 19.3
-3 6 6 490.75 18.9
2 -6 -6 722.53 26.1
2 -6 -6 678.73 25.4
-2 6 6 693.73 24.3
-2 6 6 698.73 25.4
-2 6 6 736.33 25.9
1 -6 -6 105.99 6.5
1 -6 -6 110.79 7
-1 6 6 111.29 5.8
-1 6 6 114.09 8.6
-1 6 6 99.49 6.5
0 -6 -6 -0.9 1.7
0 -6 -6 -1.8 5.2
0 6 6 0.4 1.7
0 6 6 0.5 1.3
0 6 6 0.1 1.5
-1 -6 -6 10.4 2.2
1 6 6 7.2 1.7
1 6 6 8.8 2.4
1 6 6 7.2 1.9
-2 -6 -6 28.1 3
2 6 6 31.6 2.9
2 6 6 30.9 3.1
-3 -6 -6 76.89 3.9
3 6 6 84.19 4.3
3 6 6 71.99 3.6
-6 7 6 0.4 0.7
5 -7 -6 3.1 2.2
-5 7 6 5.4 1.4
4 -7 -6 243.68 10.7
-4 7 6 240.68 10.3
3 -7 -6 0.5 2.1
-3 7 6 -0.7 2.4
2 -7 -6 8.1 2.3
-2 7 6 7.2 2.4
-2 7 6 7.4 2.1
-1 7 6 140.09 7.5
-1 7 6 134.69 7
0 -7 -6 28.6 3.3
0 7 6 30.8 3.2
0 7 6 28.7 2.6
0 7 6 25.4 3.5
-1 -7 -6 400.46 14.9
1 7 6 377.36 16.1
1 7 6 387.36 14
1 7 6 393.66 14.7
-2 -7 -6 330.87 12.2
2 7 6 355.56 12.1
2 7 6 307.97 11.9
-5 8 6 2.9 0.9
-4 8 6 77.69 4.3
-3 8 6 103.59 5.6
2 -8 -6 19.2 2.5
-2 8 6 14.9 2.1
-2 8 6 16 2.3
1 -8 -6 0.3 1.5
-1 8 6 2.8 1.4
-1 8 6 2.9 1.4
0 -8 -6 51.69 3.5
0 8 6 52.19 3.6
0 8 6 52.09 3.5
-1 -8 -6 487.25 17.6
1 8 6 541.25 17.7
-4 9 6 26 1.9
-3 9 6 -0.6 1
-2 9 6 5.9 1.2
-1 9 6 0.5 0.8
-1 10 -7 6.6 2.8
-2 10 -7 4 2.2
1 9 -7 3 1.8
0 9 -7 15.8 2.2
-1 9 -7 305.97 12.1
-2 9 -7 1.6 1.4
-3 9 -7 0.5 2.2
2 8 -7 50.09 3.1
-2 -8 7 47.5 3.1
1 8 -7 6.5 1.5
0 8 -7 1046.7 35.9
-1 8 -7 1131.29 38.8
-2 8 -7 9.3 2.2
-3 8 -7 58.89 5.3
-3 8 -7 56.59 4.4
-4 8 -7 31.9 4
-5 8 -7 1.4 1.4
-3 -7 7 84.69 4.4
2 7 -7 57.39 4.1
-2 -7 7 63.69 4.4
1 7 -7 375.06 14.8
0 7 -7 1412.86 47.5
0 -7 7 1394.36 47.2
-1 7 -7 80.69 6.9
-2 7 -7 -1.8 2.2
-3 7 -7 19.7 3.4
-3 7 -7 23.2 3
-4 7 -7 199.18 14.2
-4 7 -7 223.18 9.2
-5 7 -7 246.48 9.5
-5 7 -7 254.17 11.2
-6 7 -7 1 1.1
4 6 -7 13.9 1.2
-4 -6 7 16.3 1.8
3 6 -7 0.9 0.9
-3 -6 7 2.4 1.3
2 6 -7 65.79 4.9
2 6 -7 70.49 4.2
-2 -6 7 78.39 5.3
1 6 -7 1.4 1.4
1 6 -7 -0.6 1.7
-1 -6 7 -1.1 2.7
-1 -6 7 -0.8 1.4
0 6 -7 234.58 14
0 6 -7 222.18 9.9
0 -6 7 206.98 9.1
-1 6 -7 508.15 19.5
-1 6 -7 493.65 18.6
1 -6 7 484.65 16.9
-2 6 -7 106.69 7.2
-2 6 -7 109.69 6.3
-2 6 -7 112.29 6.3
-3 6 -7 29.9 4.1
-3 6 -7 24.5 4
-4 6 -7 10.2 2.4
-4 6 -7 4 2.2
-5 6 -7 5.8 1.8
-5 6 -7 6.9 2.2
-6 6 -7 25 2.9
4 5 -7 139.49 6.3
-4 -5 7 146.49 6.9
3 5 -7 168.58 7.9
-3 -5 7 175.88 8.6
2 5 -7 8.5 1.8
2 5 -7 8.4 2.3
-2 -5 7 8.3 2.3
-2 -5 7 8 2.6
1 5 -7 343.37 12.7
1 5 -7 328.37 13.5
-1 -5 7 346.27 16.1
0 -5 7 574.64 20.2
-1 5 -7 419.46 15.4
1 -5 7 421.46 14.6
-2 5 -7 462.85 17.4
2 -5 7 452.85 15.3
-3 5 -7 410.06 16.1
-3 5 -7 399.06 16.4
3 -5 7 360.36 13.5
-4 5 -7 157.38 8.8
-4 5 -7 128.29 8.7
-5 5 -7 0.2 1.7
-5 5 -7 0.2 2.5
-6 5 -7 0.9 1.4
5 4 -7 14.8 1.7
-5 -4 7 12.6 2.4
-5 -4 7 16.6 1.8
4 4 -7 243.88 10.1
-4 -4 7 217.78 10.2
3 4 -7 270.67 11.3
-3 -4 7 282.27 12.1
-3 -4 7 258.67 13.2
2 4 -7 5.7 2.4
-2 -4 7 1.5 1.3
-2 -4 7 3.6 2.1
-1 -4 7 81.79 4.7
0 -4 7 58.59 3.9
-1 4 -7 3638.44 117.29
1 -4 7 3684.43 116.39
-2 4 -7 213.78 9.4
2 -4 7 214.88 8.4
-3 4 -7 1157.08 39.4
-3 4 -7 1098.89 39.7
3 -4 7 1134.79 37.6
-4 4 -7 28.1 4.1
-4 4 -7 36.3 4.4
-4 4 -7 32.5 3.9
4 -4 7 35.2 3.3
-5 4 -7 3.8 2.2
5 -4 7 2 2.2
-6 4 -7 3.2 1.6
6 -4 7 1.6 1.5
5 3 -7 -0.2 0.9
-5 -3 7 0.6 1.7
-5 -3 7 -0.4 1.6
4 3 -7 204.88 9.5
4 3 -7 204.58 9.1
-4 -3 7 204.08 10.3
-4 -3 7 210.18 9.7
3 3 -7 12.6 2.5
-3 -3 7 16.1 2.7
-3 -3 7 10.6 2.9
-2 -3 7 7 1.8
1 3 -7 2.9 0.9
-1 -3 7 4.1 1.1
0 -3 7 3255.07 103.89
-1 3 -7 188.28 7.9
1 -3 7 188.28 7.3
-2 3 -7 280.87 11.3
2 -3 7 271.47 10.3
-3 3 -7 52.19 4.3
3 -3 7 50.59 3.6
-4 3 -7 2.4 2
-4 3 -7 0.3 1.4
-4 3 -7 5.7 2.3
-4 3 -7 2.9 2
4 -3 7 2.7 1.7
4 -3 7 2.3 2.4
-5 3 -7 314.27 14.2
-6 3 -7 113.79 6.1
6 -3 7 109.69 5.5
6 2 -7 17.5 1.8
-6 -2 7 19.9 1.9
5 2 -7 66.39 4.3
5 2 -7 67.89 4.7
-5 -2 7 66.29 4.5
-5 -2 7 61.09 4.8
4 2 -7 48.3 4.5
4 2 -7 54.59 4.4
-4 -2 7 48.6 5
-4 -2 7 51.69 4.4
3 2 -7 5.8 2.5
-3 -2 7 6.8 2.1
-3 -2 7 10.3 2.8
-2 -2 7 614.64 22.1
1 2 -7 3421.96 109.19
1 2 -7 3479.85 109.79
-1 -2 7 3401.46 109.89
0 2 -7 5426.06 172.48
-1 2 -7 289.17 10.8
1 -2 7 269.87 10.3
-2 2 -7 616.64 21.5
2 -2 7 587.14 20.9
-3 2 -7 479.45 18.4
3 -2 7 484.55 18.1
-4 2 -7 4.6 2.3
-4 2 -7 4.1 1.7
-4 2 -7 4.8 2.7
4 -2 7 1.4 2
4 -2 7 0.3 2
-5 2 -7 1025.7 36.9
-6 2 -7 168.68 8.5
6 -2 7 187.28 7.7
6 1 -7 7.8 1.5
6 1 -7 10.5 1.7
-6 -1 7 13.1 1.8
5 1 -7 693.43 25.5
5 1 -7 730.13 29.4
-5 -1 7 697.53 29
-5 -1 7 688.93 24.9
4 1 -7 124.29 7.1
4 1 -7 133.29 7.2
-4 -1 7 126.99 7.4
-4 -1 7 131.29 7.3
3 1 -7 212.98 9.9
-3 -1 7 220.58 10.5
2 1 -7 3.3 1.3
-2 -1 7 1.5 1
-1 -1 7 1037 34.5
0 1 -7 1548.05 49.8
0 1 -7 1525.05 49.5
0 -1 7 1525.95 49.8
-1 1 -7 3025.6 96.39
1 -1 7 2982.1 96.19
-2 1 -7 884.91 30.5
2 -1 7 894.61 30.4
-3 1 -7 220.28 9.8
3 -1 7 203.48 9.6
-4 1 -7 179.18 8.3
-4 1 -7 164.18 9.4
-4 1 -7 150.98 8.8
4 -1 7 166.58 9.4
4 -1 7 168.28 8.4
-5 1 -7 25.4 2.9
-5 1 -7 20.5 3.4
5 -1 7 26.7 3.3
-6 1 -7 1 0.8
6 -1 7 2.1 1.1
6 0 -7 45.2 3.3
6 0 -7 44.9 3.8
-6 0 7 47.6 4
5 0 -7 6.3 2.3
5 0 -7 11.6 2.2
-5 0 7 9.8 2.2
-5 0 7 9.1 2.4
4 0 -7 36.6 3.9
4 0 -7 39.1 4.4
4 0 -7 39.9 5.7
-4 0 7 30.4 4
-4 0 7 34.8 4.1
3 0 -7 30.5 3.3
-3 0 7 32.5 4
2 0 -7 1.8 1.1
-2 0 7 0.3 1.1
1 0 -7 526.15 18.1
-1 0 7 520.35 18.3
0 0 -7 1530.65 51.59
0 0 7 1656.23 52.69
-1 0 -7 57.09 3.4
-1 0 -7 57.79 3.6
1 0 7 54.19 3.5
-2 0 -7 362.46 13.8
2 0 7 351.36 13.9
-3 0 -7 13.5 2.5
-3 0 -7 13.6 2.3
3 0 7 17.5 3.2
3 0 7 15.2 2.7
-4 0 -7 5.9 1.9
4 0 7 3.8 3.6
4 0 7 5.7 2
-5 0 -7 99.79 5.6
5 0 7 98.49 5.7
-6 0 -7 0.2 0.7
6 0 7 0.5 0.9
6 -1 -7 19.2 2.5
-6 1 7 17.1 2.3
5 -1 -7 54.39 5.5
5 -1 -7 57.39 4.7
-5 1 7 49.6 4.3
-5 1 7 52.49 4.3
4 -1 -7 34.2 4.6
4 -1 -7 39.9 3.9
-4 1 7 44.8 4.3
-4 1 7 36.7 3.9
2 -1 -7 1214.88 39.9
-2 1 7 1181.88 40.1
1 -1 -7 0.1 0.8
-1 1 7 -1.2 0.8
0 -1 -7 210.18 8.5
0 1 7 213.58 8.6
-1 -1 -7 72.79 4.1
-1 -1 -7 74.09 4.4
1 1 7 75.99 4.5
-2 -1 -7 286.27 12.2
2 1 7 285.67 12.2
-3 -1 -7 2.1 1.6
-3 -1 -7 2.2 2.1
-3 -1 -7 1.4 2.3
3 1 7 0.5 2.6
3 1 7 1.1 2.4
3 1 7 -1.5 1.7
-4 -1 -7 74.19 5.5
-4 -1 -7 79.99 5.5
4 1 7 73.29 5.9
4 1 7 79.19 5.3
-5 -1 -7 54.29 3.7
5 1 7 40.5 4.4
5 1 7 54.39 3.8
6 -2 -7 -1.1 1.1
-6 2 7 -0.1 0.9
5 -2 -7 17 2.7
-5 2 7 20 2.6
-5 2 7 19.3 2.7
4 -2 -7 315.17 13.5
4 -2 -7 328.97 13.8
-4 2 7 325.47 13.3
3 -2 -7 13.9 2.4
2 -2 -7 295.27 11.5
-2 2 7 295.67 11.9
0 -2 -7 520.15 18.6
0 2 7 520.95 18.9
-1 -2 -7 850.81 29.2
-1 -2 -7 848.72 29.7
1 2 7 852.21 29.9
-2 -2 -7 340.47 14.4
-2 -2 -7 314.77 15.5
-2 -2 -7 321.67 13.1
2 2 7 341.37 14
2 2 7 336.07 14.7
-3 -2 -7 -0.1 1.9
-3 -2 -7 -0.3 1.8
3 2 7 -2.5 1.4
3 2 7 2.2 2.1
-4 -2 -7 98.59 5.6
-4 -2 -7 90.99 6.1
4 2 7 100.69 6
4 2 7 101.09 6.1
-5 -2 -7 61.09 3.7
5 2 7 61.59 3.5
5 2 7 57.69 3.7
6 -3 -7 28.3 2.9
-6 3 7 24.9 2.4
-6 3 7 27.1 2.5
5 -3 -7 3.3 1.9
-5 3 7 3.5 1.4
4 -3 -7 9.2 2.4
4 -3 -7 6.8 2.3
-4 3 7 3.3 1.7
-4 3 7 1.9 1.9
3 -3 -7 21.4 2.7
2 -3 -7 110.39 5.8
1 -3 -7 65.79 4.2
0 -3 -7 115.99 6.2
-1 -3 -7 1825.52 60.99
-1 -3 -7 1823.42 60.09
-2 -3 -7 1.9 3.5
-2 -3 -7 1.1 2.1
-2 -3 -7 1.2 1.6
2 3 7 2 1.6
2 3 7 2.9 2.1
-3 -3 -7 86.09 5.5
-3 -3 -7 87.09 5.9
3 3 7 80.29 5.5
3 3 7 83.39 5.5
-4 -3 -7 33.9 3.6
-4 -3 -7 38 3.5
4 3 7 37 3.1
4 3 7 30.4 3.3
-5 -3 -7 4.8 1
5 3 7 2.2 1.3
6 -4 -7 9.8 2
-6 4 7 9.7 1.6
-6 4 7 11.3 2.1
-6 4 7 9.3 1.3
5 -4 -7 330.77 14.1
-5 4 7 320.97 12.9
4 -4 -7 741.63 27.4
4 -4 -7 779.92 28
-4 4 7 790.52 27.6
-4 4 7 728.03 26.8
3 -4 -7 18 2.9
3 -4 -7 9.7 2.1
-3 4 7 9 2.2
-3 4 7 12.3 2.1
2 -4 -7 22.9 2.8
1 -4 -7 3106.49 100.89
0 -4 -7 496.85 18.7
0 -4 -7 449.76 20
0 4 7 474.65 17.7
0 4 7 476.45 18.2
-1 -4 -7 9.3 2.2
-1 -4 -7 9.8 2.9
1 4 7 6.2 2.3
1 4 7 6.4 1.9
-2 -4 -7 100.39 6.2
-2 -4 -7 93.09 6.6
2 4 7 103.79 6.1
2 4 7 98.09 6.3
-3 -4 -7 4.3 2.2
-3 -4 -7 7.3 1.9
3 4 7 7.1 1.8
3 4 7 6.4 1.7
-4 -4 -7 8.3 1.7
-4 -4 -7 7.7 1.7
4 4 7 5.7 1.3
6 -5 -7 37.7 3
-6 5 7 36.8 2.7
-6 5 7 41 3.6
5 -5 -7 1.8 1.8
-5 5 7 2.7 1.5
-5 5 7 0.2 1.1
-5 5 7 0.3 2.3
4 -5 -7 520.95 19.6
-4 5 7 502.55 18.4
-4 5 7 505.05 19
3 -5 -7 3.8 2
3 -5 -7 3 2.3
-3 5 7 4.7 1.6
-3 5 7 0.7 1.9
-3 5 7 5 2.2
2 -5 -7 21.1 3.1
2 -5 -7 22.3 3.1
-2 5 7 24.5 3.3
-2 5 7 16.1 2.8
-2 5 7 19.4 2.5
1 -5 -7 27.4 3.7
1 -5 -7 30.5 3.7
-1 5 7 25.5 3.4
-1 5 7 29.5 3.4
-1 5 7 25.5 3
0 -5 -7 1.3 2.2
0 -5 -7 1.4 1.7
0 5 7 0.1 1.6
0 5 7 0 1.3
0 5 7 -4.7 1.7
-1 -5 -7 8.6 4.2
-1 -5 -7 8.1 2.2
1 5 7 5.5 1.8
1 5 7 3.6 1.9
1 5 7 6.6 2.4
-2 -5 -7 241.48 11.4
2 5 7 248.88 13
-3 -5 -7 1.4 1.9
-3 -5 -7 1.7 1.4
6 -6 -7 6.8 1.3
-6 6 7 7.8 1.2
5 -6 -7 35.2 4.6
-5 6 7 30.9 2.9
4 -6 -7 19.9 2.9
-4 6 7 16 1.9
3 -6 -7 16.1 2.9
-3 6 7 11.3 2.3
-3 6 7 11.3 1.8
-3 6 7 15.8 2.6
2 -6 -7 359.66 15.1
2 -6 -7 403.16 16
-2 6 7 380.66 14.2
-2 6 7 358.26 14.9
-2 6 7 376.26 15.1
1 -6 -7 25.8 3.3
1 -6 -7 20.8 3.4
-1 6 7 23.1 3.2
-1 6 7 24 2.9
-1 6 7 26 3.2
0 -6 -7 8.9 2.2
0 6 7 6.2 2.1
0 6 7 7.9 2.1
0 6 7 10.7 1.9
-1 -6 -7 153.38 7.7
1 6 7 144.79 7.3
1 6 7 157.08 7.2
1 6 7 145.49 7.6
-2 -6 -7 494.75 18.2
2 6 7 498.95 17.8
-3 -6 -7 6 1
3 6 7 5.2 0.8
3 6 7 6.8 1
5 -7 -7 12.5 1.9
-5 7 7 13.6 1.7
4 -7 -7 52.09 5
-4 7 7 51.39 3.9
3 -7 -7 234.18 10
-3 7 7 228.98 10
2 -7 -7 327.37 12.8
-2 7 7 300.07 12.8
-2 7 7 298.37 11
1 -7 -7 26.6 3.3
-1 7 7 18.7 2.7
-1 7 7 22.5 2.4
-1 7 7 17.3 2.5
0 -7 -7 2.3 1.5
0 7 7 0.3 1.4
0 7 7 2.9 1.4
0 7 7 0.8 1
-1 -7 -7 181.88 8.2
1 7 7 182.38 7.2
1 7 7 170.08 7.5
-2 -7 -7 100.29 4.5
2 7 7 102.29 4.3
2 7 7 96.89 3.8
-5 8 7 9.1 1.2
-4 8 7 299.67 11.1
3 -8 -7 386.96 14.5
-3 8 7 367.26 14
2 -8 -7 39.5 3.3
-2 8 7 39.3 4.4
-2 8 7 41 3.2
1 -8 -7 1.2 1.2
-1 8 7 -0.9 1.1
0 -8 -7 1.4 1
0 8 7 1.7 1
-1 -8 -7 22.4 1.8
1 8 7 18.9 1.8
-3 9 7 4.9 0.9
-2 9 7 4.6 1
-1 9 7 3.3 0.9
-1 10 -8 1 1.6
-2 10 -8 3.7 1.8
1 9 -8 46.4 3.2
0 9 -8 1.3 1.2
-1 9 -8 5 1.4
-2 9 -8 7.5 1.8
-3 9 -8 21 2.8
2 8 -8 38.3 2.8
-2 -8 8 38.6 2.7
1 8 -8 15 2.1
0 8 -8 485.55 18.2
-2 8 -8 5.5 2.4
-2 8 -8 6.6 2.5
-3 8 -8 9.4 2.6
-3 8 -8 11 2.1
-4 8 -8 291.77 14.4
-5 8 -8 15.5 2.3
-3 -7 8 -1.2 0.9
2 7 -8 40.6 3.3
-2 -7 8 40.1 3.6
1 7 -8 14.9 2.4
-1 -7 8 14.6 2.9
0 7 -8 508.95 19.3
-1 7 -8 2.3 2.7
-1 7 -8 0 1.5
-2 7 -8 6.8 2.6
-2 7 -8 3.4 1.8
-3 7 -8 347.57 13.9
-3 7 -8 377.06 15.6
-4 7 -8 768.22 28.3
-5 7 -8 347.67 15.8
-6 7 -8 12.7 1.7
4 6 -8 1 0.7
-4 -6 8 0.7 0.9
3 6 -8 3 1.1
-3 -6 8 7.6 1.8
2 6 -8 59.09 4.5
2 6 -8 59.49 3.7
-2 -6 8 59.39 4.7
1 6 -8 757.22 30.1
1 6 -8 825.02 27.2
-1 -6 8 703.23 27.9
-1 -6 8 706.63 28.2
0 6 -8 2205.78 71.89
0 6 -8 2234.98 71.99
0 -6 8 2099.69 71.09
-1 6 -8 63.59 4.8
-1 6 -8 62.69 5.3
1 -6 8 57.09 3.3
-2 6 -8 8.5 2.2
-2 6 -8 4.6 2.5
-2 6 -8 5.6 2.3
-3 6 -8 782.72 30
-4 6 -8 1412.76 49.2
-5 6 -8 42.1 4.4
-6 6 -8 45.4 3.4
4 5 -8 329.37 12.7
3 5 -8 33.7 3.8
2 5 -8 394.06 17.2
2 5 -8 377.26 18.4
-2 -5 8 357.46 19.2
1 5 -8 557.44 20.4
1 5 -8 495.35 19.9
-1 -5 8 563.64 20.2
-1 -5 8 531.25 20.3
0 5 -8 50.69 4.8
0 -5 8 45.9 3.4
-1 5 -8 122.59 6.4
1 -5 8 131.19 5.6
-2 5 -8 22.4 3.4
-2 5 -8 24.4 3.3
2 -5 8 21.5 1.8
-3 5 -8 2.5 2.2
-3 5 -8 2.4 2.1
3 -5 8 2.3 1.1
-4 5 -8 2 2.2
-5 5 -8 7 2.1
-5 5 -8 8.1 2.2
-6 5 -8 7.4 1.7
5 4 -8 29.4 2.1
-5 -4 8 28.3 2.4
4 4 -8 6.4 1.6
-4 -4 8 10.9 2.1
3 4 -8 224.28 10
-3 -4 8 246.58 14.5
-3 -4 8 232.58 10.8
2 4 -8 130.19 6.5
-2 -4 8 130.39 7.4
-2 -4 8 125.99 7.1
-1 -4 8 16.7 2.2
0 4 -8 215.08 8.6
0 -4 8 216.18 8.8
-1 4 -8 0.8 1.2
1 -4 8 2.5 0.9
-2 4 -8 31.7 3.2
2 -4 8 30.9 2.4
-3 4 -8 210.08 13.5
3 -4 8 241.88 9.8
-4 4 -8 143.79 8.9
4 -4 8 138.89 9.6
-5 4 -8 1.7 2.2
5 -4 8 6.3 2.1
-6 4 -8 17.5 2.4
6 -4 8 24 2.5
5 3 -8 69.39 4.4
-5 -3 8 52.09 4.2
-5 -3 8 64.99 4
4 3 -8 237.88 10.9
-4 -3 8 246.98 11.1
-4 -3 8 300.07 16
3 3 -8 42.2 3.8
-3 -3 8 40.8 4.9
-3 -3 8 46.2 4.4
-2 -3 8 262.17 11.4
1 3 -8 719.23 24
-1 -3 8 719.83 25.2
0 3 -8 0.4 0.9
0 -3 8 -0.2 0.7
-1 3 -8 450.75 16.4
1 -3 8 443.56 15.8
-2 3 -8 973 33.1
2 -3 8 933.51 32
-3 3 -8 109.09 6.6
-3 3 -8 98.09 7
3 -3 8 109.09 5.9
-4 3 -8 239.58 9.4
-4 3 -8 227.78 9.8
-4 3 -8 231.98 11.7
-4 3 -8 226.48 11.5
4 -3 8 217.68 10.9
4 -3 8 245.78 11.1
-5 3 -8 47.7 3.2
-5 3 -8 47.1 5.1
5 -3 8 51.39 4.3
-6 3 -8 -0.4 1.6
6 -3 8 1.2 1.2
6 2 -8 18.7 1.7
-6 -2 8 18.2 1.8
5 2 -8 12.5 2
5 2 -8 8.4 1.8
-5 -2 8 7 1.8
-5 -2 8 10.8 1.9
4 2 -8 183.48 8.9
4 2 -8 174.78 8.3
-4 -2 8 178.38 8.8
-4 -2 8 167.88 9.1
3 2 -8 0.8 1.7
3 2 -8 -2.7 2.3
-3 -2 8 0.4 1.9
-3 -2 8 1.1 1.9
-2 -2 8 608.84 22.2
1 2 -8 144.69 6.2
-1 -2 8 146.99 6.7
-1 2 -8 3295.67 105.29
1 -2 8 3256.57 104.89
-2 2 -8 51.19 3.9
2 -2 8 52.49 3.5
-3 2 -8 92.19 5.8
3 -2 8 85.09 5.4
-4 2 -8 190.98 10.1
-4 2 -8 188.28 10.1
-4 2 -8 193.98 8.6
4 -2 8 184.88 9.2
4 -2 8 196.28 10.2
-5 2 -8 63.29 5.6
-5 2 -8 56.99 3.9
5 -2 8 61.49 4.5
6 -2 8 3 1.1
6 1 -8 29.3 2.2
6 1 -8 31 2.6
-6 -1 8 39 2.8
5 1 -8 693.13 24.7
5 1 -8 699.93 25.2
-5 -1 8 714.23 25.4
-5 -1 8 685.83 24.6
4 1 -8 20.7 3.2
-4 -1 8 20.8 3.2
-4 -1 8 19.1 3.1
-3 -1 8 60.19 5.2
-3 -1 8 60.29 5.1
2 1 -8 27 3.1
-2 -1 8 27.4 3
1 1 -8 540.75 19.3
-1 -1 8 563.54 19.6
0 1 -8 5153.78 161.48
0 1 -8 5002.1 161.18
-1 1 -8 2825.02 92.19
1 -1 8 2899.01 92.09
-2 1 -8 2.7 1.4
2 -1 8 4.2 1.4
-3 1 -8 56.99 4.1
-3 1 -8 56.39 4.6
3 -1 8 48.8 4.2
3 -1 8 53.69 4.5
-4 1 -8 226.78 9.8
4 -1 8 215.08 11.4
4 -1 8 207.88 9.9
-5 1 -8 108.69 5.7
5 -1 8 106.49 6
-6 1 -8 11.8 1.4
6 -1 8 14.9 1.8
6 0 -8 1.2 1
6 0 -8 -0.3 1.5
-6 0 8 0.4 0.9
5 0 -8 24.6 3.4
5 0 -8 24.8 4.6
-5 0 8 17.5 2.6
-5 0 8 22.5 4
4 0 -8 183.08 8.8
4 0 -8 181.48 9.3
-4 0 8 165.98 8.9
-4 0 8 178.98 8.7
3 0 -8 339.67 14
-3 0 8 347.27 14.4
2 0 -8 -1.5 1.1
-2 0 8 2.3 1.3
1 0 -8 16.3 2
-1 0 8 14.8 2
0 0 -8 3702.83 119.19
0 0 -8 3682.23 119.29
0 0 8 3810.82 119.49
-1 0 -8 6 1.5
-1 0 -8 6.1 1.6
1 0 8 5.6 1.5
-2 0 -8 110.29 5.9
2 0 8 103.69 6.1
-3 0 -8 6.6 2.3
-3 0 -8 4 2
3 0 8 4.1 1.9
3 0 8 0.9 3
-4 0 -8 10.1 2.1
4 0 8 5.7 2.1
-5 0 -8 2.4 1.3
5 0 8 3.8 1.5
6 0 8 5.9 1
-6 1 8 18.3 2.4
5 -1 -8 28.9 3.6
5 -1 -8 44.8 5.7
-5 1 8 34.7 3.7
4 -1 -8 71.69 6
4 -1 -8 66.39 5
4 -1 -8 62.79 5.9
-4 1 8 56.49 5.1
-4 1 8 63.09 4.8
3 -1 -8 656.83 23.8
2 -1 -8 88.39 5
-2 1 8 97.39 6.1
1 -1 -8 3.8 1.3
-1 1 8 3.9 1.4
0 -1 -8 19.6 2.6
0 1 8 21.7 2.4
-1 -1 -8 2.8 1.3
1 1 8 7.4 1.9
-2 -1 -8 14.4 2.5
2 1 8 17.5 3.1
-3 -1 -8 47.8 4.6
-3 -1 -8 51.69 4.4
-3 -1 -8 45 5
3 1 8 51.29 6.1
3 1 8 37.7 4.8
3 1 8 54.09 4.2
-4 -1 -8 156.98 8
4 1 8 166.18 8.1
-5 -1 -8 6.5 1.5
5 1 8 5.5 1.4
6 -2 -8 2.2 1.2
-6 2 8 1.2 1
5 -2 -8 2.9 1.8
-5 2 8 5.7 2.2
-5 2 8 6.8 1.7
4 -2 -8 71.09 5.7
4 -2 -8 65.59 5
-4 2 8 72.69 5.1
-4 2 8 68.49 5
3 -2 -8 8.4 2.1
2 -2 -8 -0.2 1.1
1 -2 -8 1149.08 37.6
-1 2 8 1072.89 37.6
0 -2 -8 507.75 18.7
0 2 8 515.65 19.1
-1 -2 -8 304.17 12.6
-1 -2 -8 299.27 12.1
1 2 8 288.47 12.8
-2 -2 -8 295.27 14.6
-2 -2 -8 245.98 11.4
-2 -2 -8 261.77 11.9
2 2 8 284.67 11.6
2 2 8 261.47 12.8
2 2 8 269.17 11.6
-3 -2 -8 34.9 3.9
-3 -2 -8 26.1 3.6
3 2 8 26.4 3.7
3 2 8 29.3 3.5
-4 -2 -8 29.7 3.5
-4 -2 -8 37.2 3.7
4 2 8 43.5 3.6
4 2 8 41.2 4
-5 -2 -8 10.3 1.5
5 2 8 8.8 2
-6 3 8 0.5 1
5 -3 -8 0.1 1.5
-5 3 8 3.4 1.5
4 -3 -8 950.6 33.1
4 -3 -8 886.71 32.3
-4 3 8 884.71 31.4
-4 3 8 931.11 32
3 -3 -8 240.58 10.7
3 -3 -8 233.98 10.6
-3 3 8 232.88 11.6
2 -3 -8 267.17 11.3
1 -3 -8 97.59 5.6
0 -3 -8 562.44 21
-1 -3 -8 99.39 5.7
-1 -3 -8 86.59 5.6
-1 -3 -8 85.79 6.2
1 3 8 83.09 6
1 3 8 91.19 5.4
-2 -3 -8 20.6 3
-2 -3 -8 19.8 2.9
2 3 8 16.3 2.5
2 3 8 22.2 3.1
-3 -3 -8 93.19 6.2
-3 -3 -8 90.39 5.7
3 3 8 92.89 5.7
3 3 8 94.59 5.9
-4 -3 -8 -1 1.3
-4 -3 -8 0 1.3
4 3 8 0.6 1.3
6 -4 -8 41.8 3.2
-6 4 8 43.4 3.5
-6 4 8 45.1 3.6
-6 4 8 38.8 2.4
5 -4 -8 14.2 2.6
-5 4 8 12.1 2
-5 4 8 13.9 2.2
4 -4 -8 1.7 2.4
4 -4 -8 3.7 2.1
-4 4 8 2.7 1.9
-4 4 8 0.9 1.4
3 -4 -8 8.5 2.3
3 -4 -8 12.5 2.6
-3 4 8 8.2 1.9
-3 4 8 5.2 2.3
2 -4 -8 23.5 3.2
2 -4 -8 29.2 3.4
-2 4 8 18.2 3.4
-2 4 8 30.5 3.7
1 -4 -8 713.23 25.9
1 -4 -8 696.03 25.4
-1 4 8 712.63 25.5
-1 4 8 720.73 25.2
0 -4 -8 22.1 3
0 -4 -8 23.9 3.5
0 -4 -8 16.8 2.9
0 4 8 26.9 3.6
0 4 8 23.2 2.9
0 4 8 23.3 3.1
-1 -4 -8 1117.99 39.7
-1 -4 -8 1044.5 38.5
-1 -4 -8 1121.49 38
1 4 8 1104.19 38
1 4 8 1118.89 37.9
1 4 8 1083.09 36.9
-2 -4 -8 711.83 26.9
-2 -4 -8 742.83 26.5
2 4 8 729.33 25.4
2 4 8 748.23 26.4
-3 -4 -8 12.2 2
-3 -4 -8 6.5 1.9
3 4 8 13.9 2.1
3 4 8 11.1 2.1
-4 -4 -8 60.39 3.4
4 4 8 53.69 3.4
4 4 8 63.79 3
6 -5 -8 41.4 3
-6 5 8 46.4 3.5
-6 5 8 44.2 2.6
5 -5 -8 69.19 4.8
-5 5 8 71.89 4.4
-5 5 8 65.89 7
-5 5 8 71.29 3.8
4 -5 -8 124.09 6.9
-4 5 8 113.79 6.4
-4 5 8 111.89 5.9
3 -5 -8 315.57 13.6
3 -5 -8 240.98 13.3
-3 5 8 323.57 12.1
2 -5 -8 3.1 2
2 -5 -8 -0.1 1.8
-2 5 8 -0.6 1.9
-2 5 8 0.3 1.7
-2 5 8 4.5 1.6
1 -5 -8 2.2 1.9
1 -5 -8 -1.7 2
-1 5 8 0.8 1.5
-1 5 8 0.4 1.8
-1 5 8 2 1.8
0 -5 -8 76.89 7.3
0 -5 -8 82.69 8.1
0 5 8 76.59 5.9
0 5 8 55.09 6.9
0 5 8 96.49 7.2
-1 -5 -8 141.39 7.7
1 5 8 155.98 7.7
1 5 8 152.58 7.9
1 5 8 150.88 7.4
-2 -5 -8 1 1.4
-2 -5 -8 0.8 2.4
2 5 8 0.3 1.3
2 5 8 1.9 1.3
-3 -5 -8 20.8 2.2
-3 -5 -8 16.2 2.3
3 5 8 19.9 2
3 5 8 20.1 2.1
6 -6 -8 0.5 1.2
5 -6 -8 0 1.3
-5 6 8 1.4 1.2
4 -6 -8 2.5 1.8
-4 6 8 1.2 1.7
-4 6 8 2.5 1.3
3 -6 -8 7 2.2
-3 6 8 8.3 1.7
-3 6 8 4.6 1.9
2 -6 -8 62.39 5
-2 6 8 62.39 4.8
-2 6 8 65.99 4.3
-2 6 8 68.09 5
1 -6 -8 127.59 7.2
-1 6 8 125.09 6.8
-1 6 8 134.09 7.2
-1 6 8 129.59 6.5
0 -6 -8 4.5 1.7
0 6 8 3.7 1.9
0 6 8 4.2 1.5
0 6 8 0.5 1.6
-1 -6 -8 331.77 13.4
1 6 8 328.97 12.8
1 6 8 331.77 12.9
2 6 8 16 1.9
2 6 8 12.7 1.7
5 -7 -8 7.3 1.5
-5 7 8 7.1 1.2
4 -7 -8 37.2 3.4
-4 7 8 38 3.1
3 -7 -8 268.27 11.2
-3 7 8 271.97 10.9
2 -7 -8 0.9 1.6
-2 7 8 3.1 1.5
-2 7 8 3.4 1.1
-2 7 8 1.8 1.4
1 -7 -8 -1.4 1.5
-1 7 8 1.6 1.5
-1 7 8 0.7 1
-1 7 8 1.6 1.5
0 -7 -8 4.9 1.6
0 7 8 3.1 1.4
0 7 8 5.1 1.5
0 7 8 4.8 1.2
-1 -7 -8 69.69 4
1 7 8 67.79 3.7
1 7 8 69.09 3.4
-4 8 8 19.9 1.9
3 -8 -8 3.7 1.4
-3 8 8 0.6 1.1
2 -8 -8 2 1.3
-2 8 8 2.1 1.2
1 -8 -8 0 1
-1 8 8 0 1
0 -8 -8 43.7 2.7
0 8 8 44.4 2.7
-1 10 -9 0.8 1.5
-2 10 -9 5.1 2
1 9 -9 39.1 2.7
0 9 -9 30.9 2.6
-1 9 -9 11.8 1.9
-2 9 -9 3.1 1.3
2 8 -9 9.8 1.8
-2 -8 9 10.6 2
1 8 -9 43.9 4
0 8 -9 1.3 1.3
-1 8 -9 1.5 1.4
-2 8 -9 32 4.2
-2 8 -9 28.5 3.3
-3 8 -9 17 2.7
-3 8 -9 13.9 2.7
-4 8 -9 48.4 4.1
-5 8 -9 3.2 1.3
-3 -7 9 2.6 1.2
-2 -7 9 1.7 1.7
1 7 -9 61.39 4.7
-1 -7 9 56.99 4.9
0 7 -9 105.29 6.9
0 7 -9 109.19 6.3
-1 7 -9 2.4 1.6
-1 7 -9 2.4 2.4
-2 7 -9 8.8 2.1
-2 7 -9 3.2 2.6
-3 7 -9 334.37 14.6
-4 7 -9 16.7 2.9
-5 7 -9 2.1 1.5
-4 -6 9 28.5 2.1
3 6 -9 24.4 2.4
-3 -6 9 24.9 2.7
-2 -6 9 135.89 10.4
1 6 -9 4158.18 140.19
1 6 -9 4385.06 138.59
1 6 -9 4248.57 140.39
-1 -6 9 4690.23 142.69
-1 -6 9 4347.77 140.59
0 6 -9 1030.1 36.5
0 6 -9 1091.29 36.7
0 -6 9 1028.7 35.8
-1 6 -9 56.09 4.6
-1 6 -9 49.4 5.2
1 -6 9 48.5 3.2
-2 6 -9 24.3 3.1
-2 6 -9 24.2 3.6
-2 6 -9 31.4 4
-3 6 -9 2.6 2.1
-3 6 -9 0.3 2.8
-4 6 -9 62.69 5.6
-5 6 -9 15.4 2.7
-6 6 -9 7.1 1.4
4 5 -9 21.9 2
-4 -5 9 20.7 2.4
3 5 -9 0.2 1.1
-3 -5 9 -0.6 1.4
2 5 -9 669.93 22.7
2 5 -9 613.54 23.2
-2 -5 9 629.24 23.8
-2 -5 9 656.53 24.7
1 5 -9 842.22 29.9
1 5 -9 834.32 29.8
1 5 -9 850.41 28.5
-1 -5 9 853.01 30
-1 -5 9 819.92 29.8
0 5 -9 66.99 5.3
0 -5 9 71.19 4.5
-1 5 -9 48.2 4.2
-1 5 -9 43.4 4.4
-1 5 -9 38.4 4.5
1 -5 9 48.6 3.1
-2 5 -9 58.09 4.8
-2 5 -9 53.19 4.9
-2 5 -9 67.39 5.7
2 -5 9 56.29 3.3
-3 5 -9 250.37 11.8
-3 5 -9 246.48 12.1
3 -5 9 232.88 9.4
-5 5 -9 7.1 2.2
-6 5 -9 6.1 1.5
5 4 -9 20.6 2
-5 -4 9 23 1.9
4 4 -9 12.2 2
-4 -4 9 11.4 1.9
3 4 -9 1.1 1.3
-3 -4 9 -0.2 1.7
2 4 -9 334.07 13.9
2 4 -9 354.46 13.5
2 4 -9 354.86 14.4
-2 -4 9 322.77 14.1
-2 -4 9 343.57 14.6
1 4 -9 390.56 18
-1 -4 9 329.97 13.9
0 4 -9 3.8 1.6
0 -4 9 2 1.1
-1 4 -9 36 3.4
1 -4 9 34.6 2.6
-2 4 -9 95.99 6
2 -4 9 98.59 5
-3 4 -9 1172.98 41.5
-3 4 -9 1218.08 41.4
3 -4 9 1133.99 39.6
-4 4 -9 284.47 13.5
-5 4 -9 11.7 2.7
5 -4 9 17 2.6
-6 4 -9 5.3 1.7
6 -4 9 5.4 1.6
5 3 -9 16 2.1
-5 -3 9 19 2.4
-5 -3 9 18.9 2.2
4 3 -9 5.1 2.6
-4 -3 9 9.9 2.8
-4 -3 9 3.6 2.7
3 3 -9 14.4 2.5
-3 -3 9 14.6 2.8
-3 -3 9 12.2 3.1
2 3 -9 106.49 6.4
2 3 -9 112.79 6.1
-2 -3 9 95.89 6.3
-2 -3 9 111.19 6.5
1 3 -9 867.71 30.2
-1 -3 9 949.71 31.5
0 3 -9 364.66 13.6
0 -3 9 358.76 13.8
-1 3 -9 489.75 19.2
1 -3 9 537.35 18.4
-2 3 -9 1013.4 35.5
2 -3 9 1031.8 34.7
-3 3 -9 9.9 2.6
-3 3 -9 10 1.9
-3 3 -9 5.2 2.7
3 -3 9 5.5 1.8
-4 3 -9 37.8 5
-4 3 -9 35.6 5.1
-4 3 -9 34.7 3.1
4 -3 9 36.8 4.3
4 -3 9 34.5 4.2
-5 3 -9 189.18 9.6
-5 3 -9 173.28 6.8
5 -3 9 197.28 8.6
-6 3 -9 1 1.5
6 -3 9 2.3 1.1
6 2 -9 48.8 2.9
-6 -2 9 48.1 2.7
5 2 -9 1 1.3
5 2 -9 1.7 1.6
-5 -2 9 1.5 1.3
-5 -2 9 2.5 1.5
4 2 -9 103.69 6.2
4 2 -9 97.19 5.8
-4 -2 9 90.79 6.5
-4 -2 9 98.09 6.1
3 2 -9 102.29 6.2
3 2 -9 106.09 6.5
-3 -2 9 114.09 6.4
-2 -2 9 373.16 15
1 2 -9 0.3 1.1
-1 -2 9 -0.1 0.9
0 2 -9 873.81 30
0 -2 9 892.51 30
-1 2 -9 860.91 29.9
1 -2 9 870.31 29.6
-2 2 -9 458.75 17.5
2 -2 9 453.05 17
-3 2 -9 14.1 4.1
-3 2 -9 10.7 3
3 -2 9 13 2.7
3 -2 9 12.7 2.5
-4 2 -9 83.99 7.6
-4 2 -9 92.89 5.2
-4 2 -9 81.69 6.6
4 -2 9 83.89 5.6
4 -2 9 86.49 7.4
-5 2 -9 2.5 1.3
-5 2 -9 0.6 2.1
5 -2 9 0.5 1.5
6 -2 9 28.4 2.4
6 1 -9 -0.1 0.9
-6 -1 9 0 0.9
5 1 -9 274.27 11.1
5 1 -9 267.87 11.5
-5 -1 9 275.07 11.6
-5 -1 9 267.77 11
4 1 -9 776.82 27.5
-4 -1 9 735.03 28.1
-4 -1 9 794.92 27.8
3 1 -9 117.89 6.6
3 1 -9 115.89 6.9
-3 -1 9 121.79 7.4
-3 -1 9 115.29 7.4
2 1 -9 247.08 10.9
-2 -1 9 261.27 11.1
1 1 -9 2553.54 83.19
1 1 -9 2609.14 82.99
-1 -1 9 2556.44 83.49
0 1 -9 99.09 5.1
0 -1 9 99.99 5.2
-1 1 -9 248.18 10.3
1 -1 9 247.18 10.2
-2 1 -9 23.3 3
2 -1 9 20.6 2.7
-3 1 -9 42.5 5.8
-3 1 -9 35.6 3.5
-3 1 -9 41.8 4.4
3 -1 9 34 3.8
3 -1 9 41.3 4.3
-4 1 -9 500.25 20.1
-4 1 -9 519.45 19.1
4 -1 9 516.25 19.5
-5 1 -9 153.38 7
5 -1 9 152.68 7.3
6 -1 9 1.9 0.8
6 0 -9 54.09 3.4
6 0 -9 60.09 3.7
-6 0 9 70.59 3.8
5 0 -9 0.5 1.9
5 0 -9 1.9 1.6
-5 0 9 -0.4 1.5
-5 0 9 1 1.8
4 0 -9 97.69 7.2
4 0 -9 95.99 6.3
-4 0 9 99.39 6.3
-4 0 9 98.09 6.1
3 0 -9 282.97 12.1
3 0 -9 285.07 12.6
-3 0 9 292.67 12.1
2 0 -9 282.27 11.6
-2 0 9 277.37 11.8
1 0 -9 496.05 17.8
-1 0 9 482.55 18
0 0 -9 521.95 18.6
0 0 -9 506.25 18.5
0 0 9 521.45 18.8
1 0 9 163.08 7.8
-2 0 -9 595.94 21.6
2 0 9 557.94 21.7
-3 0 -9 482.55 17.9
-3 0 -9 455.65 18.6
3 0 9 469.45 17.9
3 0 9 464.35 19.3
-4 0 -9 272.17 11.8
4 0 9 283.87 12
-5 0 -9 13.7 1.9
5 0 9 14.1 2.1
6 -1 -9 0.3 1
6 -1 -9 1 1.9
-6 1 9 1.6 1
5 -1 -9 117.59 7
-5 1 9 113.09 9.1
4 -1 -9 10.1 2.4
4 -1 -9 0.7 3
4 -1 -9 2.4 2.9
-4 1 9 5.9 2.5
-4 1 9 6.2 1.9
3 -1 -9 306.17 12.6
3 -1 -9 302.27 13
-3 1 9 299.37 12.8
2 -1 -9 52.09 4
-2 1 9 44 4.3
1 -1 -9 1501.05 49.8
-1 1 9 1501.15 50.09
0 -1 -9 546.95 20.2
0 -1 -9 628.64 22.6
0 1 9 517.95 20.3
-1 -1 -9 620.04 22.9
-1 -1 -9 640.44 22.7
1 1 9 615.54 23
-2 -1 -9 96.49 5.7
-2 -1 -9 85.99 5.5
-2 -1 -9 90.79 5.8
2 1 9 89.39 5.4
2 1 9 84.99 6.5
-3 -1 -9 16.9 2.9
-3 -1 -9 14.3 3.6
-3 -1 -9 14.9 3.2
3 1 9 19.4 4.8
3 1 9 7 2.9
-4 -1 -9 -1.6 1.1
4 1 9 2.3 2.3
4 1 9 0.2 1.3
-5 -1 -9 35.7 2.7
5 1 9 36.4 2.7
6 -2 -9 1.4 1.1
-6 2 9 1.4 1
5 -2 -9 0.7 2.4
-5 2 9 -0.2 1.5
4 -2 -9 0.6 1.8
4 -2 -9 -2.4 2.6
-4 2 9 0.1 1.9
3 -2 -9 5.1 2.4
3 -2 -9 7.5 2.2
-3 2 9 11.3 3.1
2 -2 -9 -0.6 1.2
1 -2 -9 1016.1 35.2
-1 2 9 1037.5 38
0 -2 -9 132.69 7
0 2 9 137.79 7.5
-1 -2 -9 44.8 7
-1 -2 -9 49.1 4.1
1 2 9 50.99 5.3
-2 -2 -9 64.99 5.6
-2 -2 -9 58.19 4.8
-2 -2 -9 73.79 5.1
2 2 9 62.19 5
2 2 9 80.09 5
-3 -2 -9 2.9 1.8
-3 -2 -9 -2.5 1.5
3 2 9 1.5 1.7
3 2 9 0.2 1.9
-4 -2 -9 4.3 1.5
4 2 9 6.3 1.7
4 2 9 6.9 2.6
-5 -2 -9 11.4 1.3
5 2 9 9.2 1.4
6 -3 -9 5.6 1.4
-6 3 9 3.8 1.1
5 -3 -9 67.59 4.8
-5 3 9 66.39 4.5
-5 3 9 64.39 4.5
4 -3 -9 6.6 2.2
4 -3 -9 12.2 3.3
-4 3 9 7 1.8
3 -3 -9 101.09 6.5
3 -3 -9 92.39 6
-3 3 9 96.49 5.8
2 -3 -9 146.29 7.5
2 -3 -9 145.59 7.7
-2 3 9 149.19 7.3
1 -3 -9 141.09 7.5
0 -3 -9 117.39 6.5
0 -3 -9 109.79 6.4
0 -3 -9 120.19 7
0 3 9 117.09 6.6
0 3 9 112.09 6.3
-1 -3 -9 417.76 16.2
-1 -3 -9 407.46 17.5
-1 -3 -9 426.06 16.8
1 3 9 414.66 15.7
1 3 9 397.16 16.1
-2 -3 -9 89.69 6.2
-2 -3 -9 98.89 6
2 3 9 93.19 5.9
-3 -3 -9 18.9 2.6
-3 -3 -9 18.9 2.8
3 3 9 17.9 2.6
-4 -3 -9 46.7 3.3
4 3 9 43.8 3.3
4 3 9 47.4 2.8
6 -4 -9 103.49 5.1
-6 4 9 98.99 4.6
-6 4 9 90.49 5.6
5 -4 -9 29.3 3.3
-5 4 9 30.9 3.3
-5 4 9 26 2.8
4 -4 -9 2 1.8
-4 4 9 -1.8 1.3
-4 4 9 0.4 1.9
3 -4 -9 57.19 4.6
3 -4 -9 59.59 5.2
-3 4 9 49.7 5
-3 4 9 49.7 4.1
2 -4 -9 11.9 2.5
2 -4 -9 13.1 2.6
-2 4 9 20.9 2.8
1 -4 -9 4.4 2.1
1 -4 -9 7.5 2.2
-1 4 9 8.3 1.9
-1 4 9 6.9 2.1
-1 4 9 2.3 2.4
0 -4 -9 818.72 28.8
0 -4 -9 757.02 28.9
0 -4 -9 827.42 30.1
0 4 9 842.02 28.7
0 4 9 833.32 28.9
0 4 9 767.82 28
-1 -4 -9 65.39 9.8
-1 -4 -9 55.49 4.5
-1 -4 -9 48.3 6.4
1 4 9 37.5 3.9
1 4 9 48.3 4.2
1 4 9 46.2 4.6
1 4 9 47.7 5.4
-2 -4 -9 147.79 7.4
2 4 9 137.89 7.3
2 4 9 134.59 8.1
-3 -4 -9 0.8 1.5
-3 -4 -9 1.2 1.3
3 4 9 0.1 1.1
-4 -4 -9 13.6 1.9
4 4 9 11.7 1.4
6 -5 -9 6.3 1.2
5 -5 -9 65.69 4.4
-5 5 9 63.39 3.7
-5 5 9 67.99 4.1
-4 5 9 55.69 4.2
3 -5 -9 674.93 24.5
-3 5 9 694.03 23.9
-3 5 9 635.74 23.7
2 -5 -9 9.8 2.3
2 -5 -9 14.6 3.2
-2 5 9 11.2 2.1
-2 5 9 17.4 2.9
1 -5 -9 275.37 14.4
1 -5 -9 270.67 12
-1 5 9 284.57 11.6
-1 5 9 273.97 12
0 -5 -9 878.01 30.9
0 5 9 787.42 29.9
0 5 9 908.91 31
0 5 9 906.31 30.5
-1 -5 -9 286.77 12.5
1 5 9 308.07 12.3
-2 -5 -9 2 1.3
-2 -5 -9 1.8 2.1
2 5 9 1 1.8
2 5 9 2.6 1.2
-3 -5 -9 5.6 1.4
3 5 9 3.7 1.2
3 5 9 7.6 1.3
5 -6 -9 38.7 3.1
4 -6 -9 241.88 10.2
-4 6 9 230.28 9.5
-4 6 9 220.48 8.5
3 -6 -9 74.49 5.1
-3 6 9 78.09 4.4
-3 6 9 76.89 5
2 -6 -9 7.3 2.2
-2 6 9 5.6 1.6
-2 6 9 9.9 2.2
-2 6 9 9.4 2.8
1 -6 -9 141.59 7.3
-1 6 9 124.69 7
-1 6 9 133.69 6.6
0 -6 -9 -1.7 1.3
0 6 9 -0.5 1.4
0 6 9 0.7 1.4
0 6 9 -0.5 1.1
-1 -6 -9 2 1.3
1 6 9 2 1.1
-2 -6 -9 5.6 1.2
2 6 9 6.1 1.1
2 6 9 6.2 1.2
5 -7 -9 -0.1 1.3
4 -7 -9 10.5 1.8
-4 7 9 8.6 1.5
3 -7 -9 2.8 1.9
-3 7 9 2.4 1.7
2 -7 -9 2.8 1.5
-2 7 9 2.1 1.2
-2 7 9 4.5 1.6
1 -7 -9 4.8 1.6
-1 7 9 1.3 2.2
-1 7 9 2.9 1.2
0 -7 -9 1.6 1.1
0 7 9 1.5 1.2
0 7 9 2.2 0.9
-1 -7 -9 1 0.9
1 7 9 1.1 1
1 7 9 0.6 0.7
3 -8 -9 8.3 1.4
-3 8 9 6.6 1.2
2 -8 -9 -0.6 1
-2 8 9 1.6 1
1 -8 -9 1.4 1
-1 8 9 1.2 1
0 -8 -9 9.9 1.3
1 9 -10 1.1 1.2
0 9 -10 4.3 1.1
-1 9 -10 5.5 1.4
-2 9 -10 146.69 6.4
1 8 -10 88.49 4.7
0 8 -10 58.99 4.1
-1 8 -10 3.5 2.8
-1 8 -10 9.1 1.9
-2 8 -10 502.05 19.4
-2 8 -10 549.95 19.3
-3 8 -10 3.6 1.8
-3 8 -10 4.3 1.9
-4 8 -10 8.8 1.9
-5 8 -10 30.1 2.4
-3 -7 10 43 2.6
2 7 -10 244.18 9.5
-2 -7 10 243.18 9.9
1 7 -10 6.1 1.8
-1 -7 10 8.8 2.5
0 7 -10 44.1 4
-1 7 -10 87.59 5.5
-1 7 -10 81.39 6.1
-2 7 -10 32.7 3.7
-2 7 -10 37.5 4.4
-3 7 -10 72.19 7
-4 7 -10 9.3 2.4
-5 7 -10 3.3 1.4
3 6 -10 2.9 0.9
-3 -6 10 3.4 1.4
2 6 -10 152.88 6.5
2 6 -10 153.88 7.4
-2 -6 10 160.18 7.9
1 6 -10 35.7 2.8
1 6 -10 33.1 4.1
1 6 -10 38.7 4
-1 -6 10 35.6 4.6
0 6 -10 116.59 6.7
-1 6 -10 354.26 14.8
-1 6 -10 347.27 14.3
1 -6 10 335.27 12.8
-2 6 -10 328.07 15
-3 6 -10 34.6 4.3
-4 6 -10 380.06 16.1
-5 6 -10 59.29 5.5
4 5 -10 2.3 0.9
-4 -5 10 2.4 1.2
3 5 -10 42.3 3.3
3 5 -10 37.1 4.4
-3 -5 10 42.7 4
2 5 -10 2.3 1.9
2 5 -10 0.8 1.2
-2 -5 10 1 2
1 5 -10 125.79 7.6
1 5 -10 131.09 6.2
1 5 -10 134.59 7.3
-1 -5 10 127.69 7.3
-1 -5 10 127.49 7.6
0 5 -10 -0.2 2.1
0 5 -10 3.5 2.1
0 -5 10 0.4 1.3
-1 5 -10 8.6 2.4
-1 5 -10 7 2.4
-1 5 -10 5.1 2.1
1 -5 10 6.6 1.6
-2 5 -10 102.99 6.9
-2 5 -10 100.59 6.5
-2 5 -10 99.29 6.6
2 -5 10 102.79 5.2
-3 5 -10 1027.5 42.5
-3 5 -10 1122.09 38.8
-4 5 -10 676.23 25.8
-5 5 -10 4.4 1.8
-6 5 -10 0.6 1
5 4 -10 0.2 0.5
-5 -4 10 0.6 0.8
4 4 -10 3.5 1.3
-4 -4 10 5.6 1.6
3 4 -10 7.9 2.5
3 4 -10 13 2.1
-3 -4 10 5.9 2.1
2 4 -10 1820.22 60.59
2 4 -10 1830.92 60.79
-2 -4 10 1814.62 60.89
-2 -4 10 1807.32 61.59
1 4 -10 2814.62 89.89
-1 -4 10 2730.03 90.49
0 -4 10 115.59 6
-1 4 -10 113.19 6.5
1 -4 10 120.69 6
-2 4 -10 609.14 23.7
2 -4 10 666.93 22.8
-3 4 -10 1113.29 39.1
-3 4 -10 1096.39 38.8
3 -4 10 1059.89 37.3
-4 4 -10 9.9 2.9
-5 4 -10 1.2 1.6
5 -4 10 5.6 1.9
-6 4 -10 -1 1.2
5 3 -10 11.5 1.7
-5 -3 10 14.7 2.1
-5 -3 10 15.1 1.9
4 3 -10 57.49 4.2
-4 -3 10 49.5 5.1
-4 -3 10 62.39 4.5
-3 -3 10 729.93 28.4
-3 -3 10 729.73 26.6
2 3 -10 1964.7 62.69
2 3 -10 1973.4 61.99
-2 -3 10 1807.22 62.29
-2 -3 10 1739.13 65.59
1 3 -10 112.99 5.9
-1 -3 10 121.59 6.5
0 3 -10 109.89 5.9
0 -3 10 105.19 5.6
-1 3 -10 494.75 18.7
1 -3 10 498.65 18.2
-2 3 -10 75.49 5.4
2 -3 10 75.39 4.8
-3 3 -10 194.08 10.7
-3 3 -10 209.38 10.6
-3 3 -10 215.58 8.6
3 -3 10 193.78 9.6
3 -3 10 216.18 10
-4 3 -10 25 3.7
-4 3 -10 24.1 2.8
4 -3 10 16 2.6
-5 3 -10 19.4 2.8
5 -3 10 18.2 2.5
5 2 -10 3 1.5
-5 -2 10 3 1.6
-5 -2 10 2.5 1.7
4 2 -10 12.2 2.5
4 2 -10 9.8 2.2
-4 -2 10 12.7 2.5
-4 -2 10 10.3 2.6
3 2 -10 170.08 8.6
3 2 -10 165.18 8.4
-3 -2 10 163.68 9.7
-3 -2 10 151.58 9.3
-3 -2 10 172.58 8.6
2 2 -10 149.69 7.5
2 2 -10 150.08 8
-2 -2 10 143.89 7.8
-2 -2 10 144.29 8.1
1 2 -10 224.58 9.3
-1 -2 10 225.48 9.9
0 2 -10 2771.52 91.89
0 -2 10 2911.21 92.09
-1 2 -10 150.68 7.4
1 -2 10 140.49 7
-2 2 -10 206.28 9.8
2 -2 10 200.88 9.3
-3 2 -10 99.69 5.5
-3 2 -10 94.49 7
-3 2 -10 97.49 6.6
3 -2 10 98.19 6.6
3 -2 10 100.89 6
-4 2 -10 102.99 7.2
-4 2 -10 96.09 5.4
4 -2 10 96.89 6
-5 2 -10 40.1 3
-5 2 -10 39.5 4.3
5 -2 10 45 3.6
6 1 -10 3.8 1
-6 -1 10 4.2 1
5 1 -10 8 1.8
5 1 -10 8.4 1.8
-5 -1 10 6.8 1.9
-5 -1 10 7 1.8
4 1 -10 454.35 17.5
-4 -1 10 458.75 17.7
-4 -1 10 448.06 18.2
3 1 -10 33.7 3.9
3 1 -10 32 3.9
-3 -1 10 25.7 3.6
-3 -1 10 30.8 4.2
-3 -1 10 32.7 5
-2 -1 10 333.17 13.9
1 1 -10 770.62 27.2
-1 -1 10 800.82 27.7
0 -1 10 2840.22 92.19
-1 1 -10 465.85 17.9
1 -1 10 482.95 17.9
-2 1 -10 358.66 14.4
2 -1 10 328.97 14.2
-3 1 -10 107.79 7.2
-3 1 -10 113.09 6.2
-3 1 -10 108.39 7.9
3 -1 10 110.69 7.3
3 -1 10 108.69 6.4
-4 1 -10 0.7 1.3
4 -1 10 -0.2 1.6
-5 1 -10 139.89 7.3
5 -1 10 150.38 6.9
6 0 -10 0.4 0.9
6 0 -10 -1.2 1.1
-6 0 10 -0.1 0.9
5 0 -10 46.5 3.9
5 0 -10 41.9 4
-5 0 10 38.8 3.8
-5 0 10 41.5 3.6
4 0 -10 38.7 4
4 0 -10 35.3 4.4
-4 0 10 41.8 4.1
-4 0 10 43.1 4.3
3 0 -10 22 3.2
-3 0 10 25.9 3.5
2 0 -10 49.99 4.6
-2 0 10 54.09 4.7
-1 0 10 4092.19 131.79
0 0 -10 1443.46 47.9
0 0 -10 1396.46 47.7
0 0 10 1454.05 48.1
-1 0 -10 664.33 24
1 0 10 656.93 24.2
-2 0 -10 119.69 6.7
-2 0 -10 127.29 7.2
2 0 10 124.79 7.4
2 0 10 113.39 6.4
-3 0 -10 29.7 4.8
-3 0 -10 32.8 4.9
3 0 10 38 5.4
3 0 10 26.6 4.4
-4 0 -10 4.8 2.6
-5 0 -10 1.9 1
5 0 10 1.4 1.1
6 -1 -10 51.19 3
6 -1 -10 35.8 4
-6 1 10 45.6 3
5 -1 -10 3.6 1.6
5 -1 -10 0 2
-5 1 10 4.4 1.7
4 -1 -10 -1.7 2.4
4 -1 -10 4.5 1.9
-4 1 10 1.5 1.7
-4 1 10 -2.1 2
3 -1 -10 34.9 4.6
3 -1 -10 37.3 4.4
3 -1 -10 29.3 3.8
-3 1 10 31.7 3.9
-3 1 10 28.5 3.6
2 -1 -10 1322.07 45.2
-2 1 10 1131.99 42
1 -1 -10 375.06 14.6
-1 1 10 360.16 14.7
0 -1 -10 16.5 2.7
0 -1 -10 23.3 2.8
0 1 10 20.5 3.1
-1 -1 -10 39.9 3.7
1 1 10 33.3 4.2
-2 -1 -10 2.7 2.1
-2 -1 -10 0.3 1.7
-2 -1 -10 1 2.1
2 1 10 1.4 1.8
-3 -1 -10 4.8 1.9
-3 -1 -10 0.7 2.4
3 1 10 8.1 2.1
3 1 10 0.1 2.4
-4 -1 -10 33.3 3.2
4 1 10 26.8 4
4 1 10 32.2 3.3
-5 -1 -10 28.3 2.1
6 -2 -10 46.9 3.1
-6 2 10 45.8 3
5 -2 -10 23.3 3
-5 2 10 25.5 2.9
4 -2 -10 12.6 3.4
4 -2 -10 15 2.6
4 -2 -10 14.4 4.4
-4 2 10 13 2.2
3 -2 -10 55.49 5.9
3 -2 -10 54.89 4.5
3 -2 -10 48.8 6.6
-3 2 10 61.99 4.7
-3 2 10 52.29 4.9
2 -2 -10 42.6 4.2
2 -2 -10 54.29 4.4
-2 2 10 42.5 4.2
1 -2 -10 223.98 10.3
0 -2 -10 235.78 10.5
0 -2 -10 241.68 11.1
0 2 10 231.38 11.2
-1 -2 -10 14.4 4.5
-1 -2 -10 10.3 2.3
-1 -2 -10 8.9 2.3
1 2 10 13.5 3
1 2 10 3.7 3.8
1 2 10 13 2.3
-2 -2 -10 5.8 3.1
-2 -2 -10 2 1.9
-2 -2 -10 4.2 2.1
2 2 10 -0.1 1.9
2 2 10 1.8 2.4
-3 -2 -10 39 4
3 2 10 38.6 3.7
-4 -2 -10 -0.5 1.3
4 2 10 -2.5 1.5
6 -3 -10 1.8 1
-6 3 10 -0.1 0.7
-6 3 10 1.7 1.2
5 -3 -10 3.6 1.6
-5 3 10 7.9 1.7
4 -3 -10 0.1 1.7
-4 3 10 1.4 1.4
3 -3 -10 115.39 6.6
3 -3 -10 103.79 7.3
-3 3 10 115.69 6.5
2 -3 -10 64.49 5.7
2 -3 -10 59.39 4.7
-2 3 10 63.19 5.4
-2 3 10 64.39 4.7
1 -3 -10 9.4 2.3
-1 3 10 10.1 2.4
0 -3 -10 6.6 2.7
0 -3 -10 4.7 2.1
0 -3 -10 -0.2 2.5
0 -3 -10 8.2 2.2
0 3 10 5.2 2.3
0 3 10 5.9 1.9
-1 -3 -10 277.67 12.8
-1 -3 -10 294.37 12.2
-1 -3 -10 280.27 12.6
1 3 10 282.07 12.2
1 3 10 285.07 11.6
-2 -3 -10 29.8 3.5
-2 -3 -10 28.6 4
2 3 10 27.6 3.3
2 3 10 29.2 3.5
-3 -3 -10 8.4 2.1
-3 -3 -10 6.3 1.8
3 3 10 6.1 1.6
3 3 10 7.7 2
-4 -3 -10 56.49 3.3
4 3 10 55.59 3.4
4 3 10 51.79 3.3
6 -4 -10 51.09 3.2
-6 4 10 52.69 3.7
-6 4 10 47.1 2.4
5 -4 -10 13.6 2.1
-5 4 10 15 2
4 -4 -10 169.38 8.5
-4 4 10 168.08 8
3 -4 -10 506.05 20.4
3 -4 -10 486.05 19.1
-3 4 10 504.15 18.8
2 -4 -10 55.09 5.4
2 -4 -10 58.59 4.7
-2 4 10 55.89 4.4
1 -4 -10 30.4 3.4
1 -4 -10 23.3 4
-1 4 10 29.2 3.4
0 -4 -10 94.39 7
0 -4 -10 88.99 7
0 -4 -10 97.69 8.2
0 4 10 93.89 5.7
-1 -4 -10 238.88 11.1
-1 -4 -10 239.38 10.5
1 4 10 235.98 9.8
1 4 10 232.78 10.4
1 4 10 215.18 9.7
-2 -4 -10 4.2 1.9
-2 -4 -10 3.8 1.7
2 4 10 5.8 1.9
2 4 10 2.9 1.6
2 4 10 3.7 1.7
-3 -4 -10 0.2 1.1
-3 -4 -10 0.3 1.3
3 4 10 0.1 1
3 4 10 1.1 1.9
6 -5 -10 9.1 1.3
5 -5 -10 223.88 9.7
-5 5 10 223.78 8.3
4 -5 -10 98.99 5.9
-4 5 10 96.29 5.2
-4 5 10 96.19 5.5
3 -5 -10 151.48 7.8
-3 5 10 130.49 7.8
-3 5 10 148.39 7.2
2 -5 -10 -0.1 1.5
-2 5 10 3.2 1.7
-2 5 10 1.6 2.2
1 -5 -10 116.19 6.6
-1 5 10 113.69 6.2
-1 5 10 102.79 6.2
0 -5 -10 0 1.5
0 5 10 0.4 1.8
0 5 10 1.4 1.3
-1 -5 -10 11.7 2.1
-1 -5 -10 8.7 3
1 5 10 12.9 2.1
1 5 10 16.2 2.3
-2 -5 -10 4.9 1.9
-2 -5 -10 -1.9 1.6
2 5 10 0 1.3
2 5 10 1.8 1.1
3 5 10 7.1 1.1
5 -6 -10 33 2.7
4 -6 -10 218.48 9.5
-4 6 10 195.98 7.7
-4 6 10 215.78 8.4
3 -6 -10 42.7 4
-3 6 10 47.6 3.3
-3 6 10 42.6 4
2 -6 -10 31.3 3.5
-2 6 10 29.2 3.6
-2 6 10 34.5 3
1 -6 -10 249.18 11
-1 6 10 251.87 10.4
-1 6 10 264.27 10.5
0 -6 -10 139.59 6.9
0 6 10 132.99 6.4
0 6 10 129.29 6.4
-1 -6 -10 6.5 2
1 6 10 5.7 1.5
1 6 10 2.3 1.3
-2 -6 -10 5.9 1.1
2 6 10 5.9 0.9
4 -7 -10 0.6 1.3
3 -7 -10 6.1 1.5
-3 7 10 8.3 2.1
2 -7 -10 33.1 3.2
-2 7 10 30.3 2.1
-2 7 10 36.3 3.4
1 -7 -10 133.69 6.2
-1 7 10 127.39 5.3
-1 7 10 124.59 5.7
0 -7 -10 0.9 1
0 7 10 1.8 1.3
0 7 10 1.4 0.8
-1 -7 -10 0.9 0.6
3 -8 -10 1.4 1.4
2 -8 -10 11.2 1.4
1 -8 -10 3.2 1
0 9 -11 36.4 2.4
-1 9 -11 1.1 1
-2 9 -11 6.5 1.3
1 8 -11 114.79 5.4
0 8 -11 -0.8 1.1
-1 8 -11 5.4 2.8
-1 8 -11 6.1 1.7
-2 8 -11 5.4 1.6
-2 8 -11 4.8 1.9
-3 8 -11 0.9 1.8
-4 8 -11 10.4 1.7
-3 -7 11 79.89 4.2
2 7 -11 32.4 2.6
-2 -7 11 32.6 2.9
1 7 -11 14.5 2.2
-1 -7 11 22.2 4.2
0 7 -11 43.6 4.9
-1 7 -11 188.18 8.7
-1 7 -11 163.78 9.1
-3 7 -11 2.1 1.8
-4 7 -11 140.49 7.5
-5 7 -11 1.4 1.2
3 6 -11 8.4 1
-3 -6 11 10.1 1.8
2 6 -11 82.49 4
2 6 -11 85.19 5
-2 -6 11 81.89 5.4
1 6 -11 51.59 5.2
-1 -6 11 47.2 4.6
0 6 -11 67.99 5.4
0 6 -11 68.99 5.2
-1 6 -11 601.44 21.7
-1 6 -11 577.14 22
1 -6 11 535.55 20.1
-2 6 -11 3.4 2.2
-2 6 -11 0.9 1.8
-3 6 -11 91.49 6.6
-4 6 -11 0.3 1.6
-5 6 -11 10.8 2
4 5 -11 0 0.6
-4 -5 11 0.3 0.9
3 5 -11 221.98 9.2
3 5 -11 234.98 10.4
-3 -5 11 230.08 10.1
2 5 -11 -0.8 1.2
2 5 -11 -0.1 1.7
-2 -5 11 -4.1 1.7
1 5 -11 1212.58 42.1
1 5 -11 1205.48 43.9
-1 -5 11 1143.09 42.8
0 5 -11 103.89 6.9
0 5 -11 118.09 7
0 -5 11 108.39 6.2
-1 5 -11 2.6 1.9
-1 5 -11 1.4 1.9
-1 5 -11 4.3 2.6
1 -5 11 2 1.3
-2 5 -11 210.48 10.6
-2 5 -11 213.38 10.6
-2 5 -11 206.58 9.8
2 -5 11 197.78 8.8
-3 5 -11 154.68 8.9
-4 5 -11 106.69 7
-5 5 -11 5.7 2
4 4 -11 7.1 1.4
-4 -4 11 7.9 1.6
3 4 -11 13.5 2.5
3 4 -11 13.2 2.2
-3 -4 11 9.2 2.2
2 4 -11 1842.42 60.99
2 4 -11 1734.43 63.19
-2 -4 11 1924.01 63.49
-2 -4 11 1772.62 60.99
1 4 -11 1065.29 36.7
1 4 -11 1065.59 37.9
1 4 -11 1103.09 38
-1 -4 11 1107.09 38.2
-1 -4 11 1102.19 37.8
0 4 -11 58.99 4.9
0 4 -11 57.79 6.3
0 4 -11 59.09 4.1
0 4 -11 77.69 8
-1 4 -11 24 3.5
-1 4 -11 19.1 3.6
-1 4 -11 13.3 3
-2 4 -11 3.5 2.3
-2 4 -11 2.9 2.6
-2 4 -11 3.1 2.4
2 -4 11 2 1.5
-3 4 -11 8.5 2.4
-3 4 -11 10.3 3.3
3 -4 11 11.3 2.6
-4 4 -11 3.5 2.5
4 -4 11 1 2.3
-5 4 -11 1.3 1.8
5 -4 11 -0.1 1.7
5 3 -11 26.2 2.1
-5 -3 11 15.5 2.5
-5 -3 11 24.2 2.2
4 3 -11 2.5 1.3
-4 -3 11 5.3 2.5
-4 -3 11 2.3 1.6
3 3 -11 48.7 5
-3 -3 11 48.3 4.4
2 3 -11 530.05 19.2
2 3 -11 480.75 19.4
2 3 -11 520.95 19.8
-2 -3 11 502.05 19.5
1 3 -11 380.06 14.4
1 3 -11 371.76 14.4
1 3 -11 397.16 15.5
-1 -3 11 394.56 15.3
-1 -3 11 323.27 15.9
0 3 -11 598.14 21.7
0 -3 11 592.04 21.8
-1 3 -11 24.9 3.3
1 -3 11 30.2 3
-2 3 -11 1511.65 53.39
-2 3 -11 1534.85 51.19
-2 3 -11 1581.64 53.39
2 -3 11 1623.94 52.69
-3 3 -11 2726.73 92.39
-3 3 -11 2794.42 89.49
-3 3 -11 2799.62 92.19
3 -3 11 2867.21 91.79
3 -3 11 2738.13 90.59
-4 3 -11 1.8 2.2
-5 3 -11 13.1 2.3
5 -3 11 21.6 2.7
5 2 -11 105.89 5.2
-5 -2 11 105.29 5
-5 -2 11 96.69 5.5
4 2 -11 111.99 6
-4 -2 11 117.29 7.1
3 2 -11 452.75 17
3 2 -11 452.45 17.4
-3 -2 11 439.16 19.2
-3 -2 11 446.96 18.3
2 2 -11 87.69 6.2
2 2 -11 87.29 5.6
-2 -2 11 91.29 5.7
-2 -2 11 95.09 6.3
1 2 -11 180.68 8.5
-1 -2 11 192.48 9
0 2 -11 184.28 8.6
0 -2 11 186.28 8.7
-1 2 -11 1296.47 44.7
1 -2 11 1328.87 44.6
-2 2 -11 2096.89 70.99
-2 2 -11 2095.19 69.39
2 -2 11 2031 68.19
-3 2 -11 215.08 9.1
-3 2 -11 204.58 10.9
-3 2 -11 208.58 10.7
3 -2 11 200.08 9.5
3 -2 11 217.58 10.8
-4 2 -11 56.09 7.3
4 -2 11 49.2 6.1
-5 2 -11 2.5 1
5 -2 11 6.5 1.6
6 1 -11 12.2 1.6
-6 -1 11 19.7 2.2
5 1 -11 -0.1 1.2
5 1 -11 0.9 1.4
-5 -1 11 1.2 1.3
-5 -1 11 1.6 1.5
4 1 -11 88.49 5.6
-4 -1 11 72.79 5.7
-4 -1 11 80.29 5.5
3 1 -11 206.88 9.6
3 1 -11 203.78 9.9
-3 -1 11 202.68 11.3
-3 -1 11 199.48 10.3
-3 -1 11 205.18 9.7
2 1 -11 65.89 4.6
2 1 -11 69.29 5.3
2 1 -11 65.39 4.8
-2 -1 11 56.19 5
-2 -1 11 68.99 4.7
1 1 -11 1229.08 41.2
-1 -1 11 1204.38 41.7
0 1 -11 191.08 8.9
0 -1 11 197.08 9.1
-1 1 -11 463.55 17.8
1 -1 11 447.96 17.7
-2 1 -11 708.83 25
-2 1 -11 724.43 26.4
-2 1 -11 741.53 26.3
2 -1 11 642.84 29
-3 1 -11 14.8 2.4
-3 1 -11 10.9 4.6
-3 1 -11 25.4 6.1
3 -1 11 11.1 3.7
3 -1 11 12.3 2.5
-4 1 -11 -0.2 1.2
4 -1 11 0 1.5
-5 1 -11 79.79 3.9
5 -1 11 87.89 4.7
6 0 -11 38.6 2.7
6 0 -11 33.8 2.7
-6 0 11 46.5 2.7
5 0 -11 573.04 19.9
5 0 -11 516.45 20
-5 0 11 560.94 20.2
-5 0 11 539.65 20.1
4 0 -11 -2 1.9
4 0 -11 3.2 1.8
-4 0 11 0.4 1.7
-4 0 11 -0.6 1.8
3 0 -11 249.48 11.6
3 0 -11 266.57 11.4
-3 0 11 255.97 11.8
-3 0 11 262.57 11.4
2 0 -11 877.31 30.5
2 0 -11 873.71 30.1
-2 0 11 847.02 29.9
-2 0 11 818.32 30.8
1 0 -11 20.8 2.8
-1 0 11 16.9 2.8
0 0 -11 174.08 8.4
0 0 11 171.18 8.6
-1 0 -11 21.7 2.9
1 0 11 23 3.5
-2 0 -11 236.78 11.7
-2 0 -11 266.37 11.1
2 0 11 243.88 10.9
2 0 11 250.07 12.2
-3 0 -11 6.7 2
3 0 11 6.5 2.1
-4 0 -11 10.8 1.9
4 0 11 11.5 2.2
-5 0 -11 7.7 1.1
6 -1 -11 109.59 5.3
-6 1 11 130.19 5.4
5 -1 -11 26.4 3.7
5 -1 -11 33.8 3.3
-5 1 11 33.6 3.4
4 -1 -11 101.69 6.9
4 -1 -11 111.69 6.4
-4 1 11 111.99 6.6
-4 1 11 108.79 6.2
3 -1 -11 26.2 3.5
3 -1 -11 16.1 4
3 -1 -11 25.7 3.7
-3 1 11 20.7 3.1
-3 1 11 21.9 3
2 -1 -11 13.6 2.6
2 -1 -11 15.1 2.9
2 -1 -11 14.4 3
-2 1 11 10.9 2.6
-2 1 11 8.1 2.2
1 -1 -11 20.1 3.5
-1 1 11 14.7 3.2
0 -1 -11 260.17 11.3
0 1 11 244.48 11.6
-1 -1 -11 4.4 2.1
-1 -1 -11 2.7 3.1
1 1 11 4.7 1.9
1 1 11 6.2 2.5
1 1 11 5 2.6
-2 -1 -11 3.9 2.6
-2 -1 -11 0.4 1.6
-2 -1 -11 1.4 2.2
2 1 11 3.9 2.6
2 1 11 0.8 3.9
2 1 11 2 1.9
-3 -1 -11 195.78 9.3
3 1 11 195.48 9.1
3 1 11 184.98 9.7
-4 -1 -11 34.9 3.2
4 1 11 39.7 3.3
4 1 11 40.2 4.2
-5 -1 -11 25.3 1.7
5 1 11 26.3 1.7
6 -2 -11 -0.2 0.7
-6 2 11 -0.2 0.7
5 -2 -11 0.9 3
5 -2 -11 1 1.4
-5 2 11 2.4 1.3
4 -2 -11 38.2 3.8
4 -2 -11 30.9 4.2
-4 2 11 29 3.4
3 -2 -11 26.7 3.7
3 -2 -11 28.6 4.2
3 -2 -11 32.7 5
-3 2 11 34.3 4.2
-3 2 11 25.2 3.4
2 -2 -11 213.48 10.3
2 -2 -11 225.88 10
2 -2 -11 225.58 10.9
-2 2 11 213.28 10
1 -2 -11 307.67 16
1 -2 -11 363.46 15
1 -2 -11 375.16 14.2
-1 2 11 333.47 13.4
-1 2 11 342.17 13.9
0 -2 -11 142.29 8.7
0 -2 -11 142.79 7.9
0 -2 -11 149.29 7.5
0 2 11 116.89 8.5
0 2 11 157.48 9.6
-1 -2 -11 16.6 2.7
-1 -2 -11 10.9 2.8
-1 -2 -11 16.6 2.9
1 2 11 14.9 2.8
1 2 11 14.9 2.3
-2 -2 -11 33.4 3.7
-2 -2 -11 34.2 3.9
2 2 11 32.9 3.9
-3 -2 -11 306.67 13.1
-3 -2 -11 314.87 12.3
3 2 11 323.27 13.2
-4 -2 -11 131.09 6
4 2 11 123.39 6
4 2 11 129.89 5.6
6 -3 -11 0.5 0.8
-6 3 11 1.1 0.8
-6 3 11 -0.2 1.1
5 -3 -11 12.2 2.1
-5 3 11 11.8 1.9
4 -3 -11 87.79 5.7
-4 3 11 86.29 5.5
3 -3 -11 149.39 11.9
3 -3 -11 122.29 7
-3 3 11 115.59 6.8
2 -3 -11 643.54 25.1
2 -3 -11 683.63 24.2
-2 3 11 669.33 24.1
-2 3 11 629.44 23.3
1 -3 -11 74.09 6.4
1 -3 -11 65.39 5.8
1 -3 -11 73.29 5
-1 3 11 72.59 5
-1 3 11 65.19 5
0 -3 -11 28.7 4.5
0 -3 -11 44.2 3.9
0 -3 -11 36.2 4.6
0 -3 -11 47.7 4.9
0 3 11 42 3.9
0 3 11 38.8 3.9
-1 -3 -11 263.17 12.9
-1 -3 -11 257.47 12.1
-1 -3 -11 279.47 11.8
1 3 11 279.77 11.3
1 3 11 275.57 11.9
-2 -3 -11 6.2 2.7
2 3 11 7 3.1
-3 -3 -11 35 3.5
-3 -3 -11 34.3 3
3 3 11 38 3.3
-4 -3 -11 45.8 2.6
4 3 11 40.3 2.6
6 -4 -11 1 0.8
5 -4 -11 18.8 2.4
-5 4 11 17.6 2.2
-5 4 11 14.2 2.6
4 -4 -11 352.76 14.3
-4 4 11 349.07 13.8
3 -4 -11 356.26 14.5
-3 4 11 345.47 14.1
2 -4 -11 52.09 6.3
2 -4 -11 56.89 4.5
-2 4 11 63.29 4.6
1 -4 -11 2.1 3.7
1 -4 -11 1.7 1.7
-1 4 11 2.8 1.6
0 -4 -11 57.39 5.5
0 -4 -11 56.99 4.6
0 4 11 56.89 4.6
0 4 11 58.59 4.5
-1 -4 -11 15.1 2.6
-1 -4 -11 16.6 4.4
1 4 11 12.1 2.7
1 4 11 11.9 2.1
-2 -4 -11 56.69 4
-2 -4 -11 56.29 4.4
2 4 11 52.69 3.9
2 4 11 47.1 3.5
-3 -4 -11 0.8 1.2
-3 -4 -11 1.4 1
3 4 11 0.6 0.8
5 -5 -11 46.4 3.2
-5 5 11 40.5 2.3
4 -5 -11 49.7 4.1
-4 5 11 50.19 3.4
3 -5 -11 -0.5 1.5
-3 5 11 -0.4 1.3
2 -5 -11 97.79 6.1
-2 5 11 98.79 5.6
1 -5 -11 1.4 1.6
-1 5 11 -0.2 1.2
0 -5 -11 5.7 1.9
0 5 11 3.2 1.4
-1 -5 -11 22.5 2.8
1 5 11 22.9 2.6
-2 -5 -11 28.6 3.1
-2 -5 -11 34.7 2.6
2 5 11 35.2 2.6
5 -6 -11 19.1 1.9
4 -6 -11 44.8 3.4
-4 6 11 40 2.4
3 -6 -11 10.7 2
-3 6 11 10.5 1.6
2 -6 -11 3.7 1.7
-2 6 11 2.2 1.2
1 -6 -11 0.4 1.3
-1 6 11 1.3 1.1
0 -6 -11 26.5 2.9
0 6 11 27.3 2.5
-1 -6 -11 2.9 1.1
1 6 11 2.3 0.9
4 -7 -11 1.9 1
3 -7 -11 7.1 1.5
2 -7 -11 33.4 2.7
1 -7 -11 76.59 4.2
-1 7 11 74.99 3.8
0 -7 -11 6.4 1.4
0 7 11 5 0.9
0 9 -12 5.9 1.1
-1 9 -12 26.3 2.2
-2 9 -12 24.1 2
1 8 -12 14.7 1.8
0 8 -12 18 2.8
-1 8 -12 -0.9 1.8
-1 8 -12 -0.3 1.2
-2 8 -12 5.6 1.7
-2 8 -12 3.5 1.7
-3 8 -12 93.89 5.2
-4 8 -12 -1.5 1.2
2 7 -12 54.09 3.1
-2 -7 12 50.29 3.6
1 7 -12 9.9 1.8
-1 -7 12 4.7 2.1
0 7 -12 94.99 6.4
0 7 -12 99.09 5.6
-1 7 -12 2.8 2
-1 7 -12 2.8 1.5
-2 7 -12 112.59 6.1
-2 7 -12 114.19 6.8
-3 7 -12 38.3 3.9
-4 7 -12 75.79 5
-5 7 -12 0 0.7
-3 -6 12 348.37 12.9
2 6 -12 4.3 1.7
2 6 -12 1.6 1.4
-2 -6 12 3.1 1.6
1 6 -12 103.19 7.4
-1 -6 12 120.69 6.6
0 6 -12 106.89 6.9
0 6 -12 113.59 6.7
-1 6 -12 181.38 9.1
-1 6 -12 183.08 9.5
-2 6 -12 33 4.1
-2 6 -12 33.3 3.7
-3 6 -12 31.2 5.3
-4 6 -12 2.6 1.7
-5 6 -12 6.7 1.5
4 5 -12 117.99 4.7
-4 -5 12 127.99 5.8
3 5 -12 16.4 2.3
3 5 -12 17.9 2.1
-3 -5 12 19.4 2.6
1 5 -12 -0.5 2.2
1 5 -12 2.6 1.4
1 5 -12 2.5 2
-1 -5 12 5.7 2.4
0 5 -12 60.69 6.6
-1 5 -12 55.09 5
-1 5 -12 54.19 5.1
-1 5 -12 53.69 6.1
1 -5 12 48.5 4
-2 5 -12 17.7 4.2
-2 5 -12 19.1 3.1
-2 5 -12 15.5 3
2 -5 12 21.9 3
-3 5 -12 15.7 3.1
-4 5 -12 1.5 1.7
-5 5 -12 41.1 3.4
4 4 -12 2.1 1
-4 -4 12 2.9 1.2
3 4 -12 50.79 3.7
3 4 -12 48 4.1
-3 -4 12 53.39 4.4
2 4 -12 104.59 6.5
-2 -4 12 108.19 6.7
1 4 -12 105.79 6.8
1 4 -12 102.59 5.7
1 4 -12 115.39 7
-1 -4 12 110.39 6.7
-1 -4 12 102.09 6.6
0 4 -12 2.3 2.1
0 4 -12 1.1 2.6
0 4 -12 1.6 1.9
0 4 -12 2.4 1.5
0 -4 12 -6.2 2.5
-1 4 -12 27.5 3.9
-1 4 -12 23.7 3.6
-1 4 -12 23.7 3
-1 4 -12 17.8 3
1 -4 12 27 3.1
-2 4 -12 375.46 16
-2 4 -12 397.46 16.2
-2 4 -12 352.66 14.9
2 -4 12 359.06 14.9
-3 4 -12 119.79 7.7
-4 4 -12 11.2 2.4
-5 4 -12 124.99 6.3
5 -4 12 126.69 5.6
5 3 -12 0.2 0.7
-5 -3 12 1.2 0.8
4 3 -12 21.4 2.5
-4 -3 12 21.3 3.4
-4 -3 12 19.9 2.7
3 3 -12 3.1 2.4
-3 -3 12 3.7 1.7
2 3 -12 1571.44 51.49
2 3 -12 1417.56 50.69
2 3 -12 1524.95 50.59
-2 -3 12 1491.25 50.89
1 3 -12 10.2 2.7
1 3 -12 5.7 1.8
-1 -3 12 11 2.6
-1 -3 12 8.5 2.2
0 3 -12 107.09 6.4
0 3 -12 112.29 5.9
0 -3 12 105.79 8.3
0 -3 12 109.19 6.2
1 -3 12 17.5 2.8
-2 3 -12 508.75 20.6
-2 3 -12 513.85 20.8
-2 3 -12 543.85 18.7
2 -3 12 539.65 20.4
2 -3 12 518.55 19.5
-3 3 -12 827.22 30.4
-3 3 -12 840.72 28
3 -3 12 812.82 29.1
-4 3 -12 66.49 5.5
-4 3 -12 69.89 3.5
4 -3 12 74.99 4.9
-5 3 -12 72.19 4.7
5 2 -12 96.89 4.6
-5 -2 12 81.99 4.9
-5 -2 12 90.09 4.3
4 2 -12 10.1 2
-4 -2 12 14.6 3
-4 -2 12 13.5 2.3
3 2 -12 1423.36 47.4
3 2 -12 1362.56 46.9
3 2 -12 1366.66 46.3
-3 -2 12 1400.46 47.4
-3 -2 12 1400.76 48.1
2 2 -12 3996.7 123.79
2 2 -12 3960.8 124.29
-2 -2 12 3730.43 123.79
-2 -2 12 3624.04 124.69
1 2 -12 14.7 2.8
1 2 -12 10.2 2.4
-1 -2 12 16.3 3
-1 -2 12 17 2.7
0 2 -12 11.9 2.1
0 2 -12 11.8 2.5
0 2 -12 7.7 2.3
-1 2 -12 146.59 6.9
-1 2 -12 136.39 7.9
-1 2 -12 143.99 7.8
1 -2 12 141.79 7.7
1 -2 12 140.69 7.1
-2 2 -12 732.13 27.5
-2 2 -12 758.42 26
-2 2 -12 731.83 27.8
2 -2 12 746.53 27.6
-3 2 -12 92.09 5.2
-3 2 -12 83.69 6.5
3 -2 12 92.39 6
-4 2 -12 125.29 6
-4 2 -12 123.79 7.1
4 -2 12 139.39 7
5 1 -12 0.2 1.1
5 1 -12 0.6 1.5
-5 -1 12 0.9 1.2
-5 -1 12 0.2 1.2
4 1 -12 291.77 12.2
-4 -1 12 307.07 13.4
3 1 -12 2188.58 69.09
3 1 -12 1926.91 64.89
-3 -1 12 1676.03 70.69
-3 -1 12 1979.9 64.79
2 1 -12 57.29 5.2
2 1 -12 47.8 4.8
2 1 -12 54.89 4.6
2 1 -12 58.49 4.8
-2 -1 12 52.79 6.1
-2 -1 12 52.79 5.8
-2 -1 12 63.29 4.7
1 1 -12 6.4 2.5
1 1 -12 2.1 1.8
1 1 -12 0.7 1.6
-1 -1 12 -1.9 1.6
-1 -1 12 4.7 1.9
0 1 -12 177.48 8.4
0 1 -12 188.38 9.1
0 -1 12 182.98 9.1
-1 1 -12 43.3 5.9
1 -1 12 55.69 4.7
1 -1 12 52.29 4.3
-2 1 -12 399.56 16.9
-2 1 -12 414.76 17.3
-2 1 -12 409.76 15.8
2 -1 12 375.86 15.8
2 -1 12 436.66 17.6
-3 1 -12 9.6 2
3 -1 12 7.9 2.3
-4 1 -12 1.1 1.1
4 -1 12 2.8 1.5
-5 1 -12 27.7 1.7
-6 0 12 27.8 1.9
5 0 -12 0.4 1.3
5 0 -12 0.7 1.8
-5 0 12 1 1.1
-5 0 12 2.5 1.6
4 0 -12 0.7 1.8
4 0 -12 2.6 1.9
-4 0 12 -0.9 1.6
-4 0 12 2.4 1.9
3 0 -12 121.29 8.4
3 0 -12 138.09 8.3
3 0 -12 139.69 8.6
-3 0 12 141.39 8.1
-3 0 12 140.49 10.8
2 0 -12 205.18 9.3
2 0 -12 183.98 9.2
-2 0 12 195.38 9
-2 0 12 178.78 12.4
-2 0 12 196.58 10.7
1 0 -12 45.9 5.5
1 0 -12 59.89 4.7
1 0 -12 57.39 4.7
-1 0 12 47.3 4.9
-1 0 12 72.49 4.6
0 0 -12 29.1 3.5
0 0 -12 31.2 3.7
0 0 12 24.9 2.9
0 0 12 26.3 3.8
-1 0 -12 146.49 8.2
-1 0 -12 142.29 7.4
-1 0 -12 139.19 7.5
1 0 12 138.19 7.1
1 0 12 145.69 8.7
-2 0 -12 10.4 3.1
-2 0 -12 8.8 2
2 0 12 10.2 2.4
2 0 12 6.8 3.1
-3 0 -12 97.09 5.9
3 0 12 100.29 6
-4 0 -12 78.49 4.6
4 0 12 88.69 5.1
-5 0 -12 0.5 0.7
5 0 12 0.8 0.7
-6 1 12 4.1 0.9
5 -1 -12 -1.4 1.2
5 -1 -12 0.7 1.6
-5 1 12 -0.7 1.1
4 -1 -12 55.59 4.4
4 -1 -12 53.59 4.9
-4 1 12 53.09 4.4
-4 1 12 44.5 4.6
3 -1 -12 19.8 3.4
-3 1 12 22.7 5
-3 1 12 15.9 3.8
2 -1 -12 1.7 1.8
2 -1 -12 2.5 1.9
-2 1 12 3.7 2.2
1 -1 -12 422.46 16.5
-1 1 12 439.86 16.3
-1 1 12 379.06 16
-1 1 12 371.76 16.8
0 -1 -12 61.09 6.7
0 -1 -12 59.19 5
0 -1 -12 76.29 5.5
0 1 12 73.59 5.5
0 1 12 68.69 6.2
0 1 12 66.69 4.6
-1 -1 -12 49.2 4.5
-1 -1 -12 56.29 5.1
-1 -1 -12 45 4.3
1 1 12 49.7 6.3
1 1 12 48.3 4.8
1 1 12 51.39 4.1
-2 -1 -12 33.1 4.1
-2 -1 -12 28 5.1
-2 -1 -12 26.7 3.4
2 1 12 22.7 3.3
-3 -1 -12 0.5 1.2
3 1 12 2.4 2.1
-4 -1 -12 38.5 3
4 1 12 42.1 3
6 -2 -12 17.2 1.7
-6 2 12 23.5 2
-6 2 12 25.7 1.7
5 -2 -12 29.6 3.9
5 -2 -12 38.2 3.3
-5 2 12 36.6 3.1
4 -2 -12 5.2 1.8
4 -2 -12 5.5 2.3
-4 2 12 3.7 1.7
3 -2 -12 5.1 2.5
3 -2 -12 3.2 1.9
-3 2 12 5.4 2.2
-3 2 12 1.3 1.7
2 -2 -12 655.73 24.9
2 -2 -12 619.24 23.8
2 -2 -12 647.04 23.5
-2 2 12 620.14 23.5
-2 2 12 650.03 23.2
1 -2 -12 330.07 13.5
1 -2 -12 334.37 15.9
1 -2 -12 322.67 13.9
-1 2 12 327.17 13.1
-1 2 12 328.57 13.7
0 -2 -12 235.08 11
0 -2 -12 252.27 10.7
0 -2 -12 231.58 11.4
0 2 12 251.27 10.4
0 2 12 229.98 10.7
-1 -2 -12 3 1.9
-1 -2 -12 5.3 2.2
-1 -2 -12 6 4.3
1 2 12 3.4 1.7
1 2 12 4.2 2.9
-2 -2 -12 3.9 1.7
-2 -2 -12 2.9 1.9
2 2 12 2.8 1.8
2 2 12 0.4 1.4
-3 -2 -12 59.99 4.2
3 2 12 57.99 3.9
3 2 12 56.59 4.6
-4 -2 -12 43.7 2.7
4 2 12 38.3 2.3
4 2 12 34.7 2.8
6 -3 -12 23 1.8
-6 3 12 26.4 1.8
5 -3 -12 27.7 2.9
-5 3 12 30.4 2.8
4 -3 -12 72.19 5
-4 3 12 72.09 4.8
3 -3 -12 2.5 4.4
3 -3 -12 1.9 1.8
-3 3 12 8.4 2.3
2 -3 -12 111.59 6.6
-2 3 12 112.89 6.6
1 -3 -12 452.65 18
1 -3 -12 431.36 22.2
1 -3 -12 459.65 19.6
-1 3 12 474.95 20.4
-1 3 12 447.66 17
0 -3 -12 2.1 2.4
0 -3 -12 7 2.1
0 -3 -12 2.5 3.1
0 3 12 4.8 2
0 3 12 1.7 1.6
-1 -3 -12 23.7 3.1
-1 -3 -12 23.1 3.4
1 3 12 24.2 3.2
1 3 12 24.6 3.3
-2 -3 -12 225.88 9.8
-2 -3 -12 236.08 10.4
2 3 12 225.28 9.4
2 3 12 232.08 10.1
-3 -3 -12 96.69 5.1
3 3 12 90.59 4.3
3 3 12 92.49 5
5 -4 -12 52.39 3.5
-5 4 12 45.4 2.9
4 -4 -12 99.69 5.9
-4 4 12 101.29 5.5
3 -4 -12 2.9 1.8
-3 4 12 3.2 1.7
2 -4 -12 10.6 2.2
-2 4 12 11 2
1 -4 -12 -0.3 1.5
1 -4 -12 -2.9 2.4
-1 4 12 0.2 1.3
0 -4 -12 1.7 1.4
0 -4 -12 -0.7 2.7
0 4 12 1.5 1.4
-1 -4 -12 3.2 2
-1 -4 -12 6.9 1.9
1 4 12 5.7 1.6
1 4 12 5.4 1.9
-2 -4 -12 164.48 7.7
-2 -4 -12 163.78 7.3
2 4 12 184.88 8.8
-3 -4 -12 17.7 1.9
3 4 12 19.4 1.7
5 -5 -12 18.2 2
4 -5 -12 1.1 1.2
-4 5 12 0.9 1
3 -5 -12 4.4 1.8
-3 5 12 4.8 1.5
2 -5 -12 37.8 3.8
-2 5 12 44.9 3.6
1 -5 -12 1.2 1.5
-1 5 12 1 1.2
0 -5 -12 0.1 1.3
0 5 12 1.1 1.3
-1 -5 -12 59.29 4.7
-1 -5 -12 61.99 5.1
1 5 12 79.49 4.8
-2 -5 -12 5.5 1.1
2 5 12 3.1 1.1
4 -6 -12 2.1 1.1
3 -6 -12 50.29 3.6
-3 6 12 49 2.9
2 -6 -12 5.1 1.4
-2 6 12 3.2 1.2
1 -6 -12 22.2 2.6
-1 6 12 20.9 2.6
0 -6 -12 9.9 1.6
0 6 12 11.6 1.5
-1 -6 -12 17.1 1.6
1 6 12 16.9 1.5
3 -7 -12 0 0.8
2 -7 -12 7.7 1.6
1 -7 -12 0.7 0.9
-1 9 -13 7.7 1.1
-2 9 -13 6.2 1.3
1 8 -13 44.5 2.8
0 8 -13 118.29 5.6
-1 8 -13 4.4 1.3
-1 8 -13 3.3 1.9
-2 8 -13 8.2 1.8
-2 8 -13 8 1.5
-3 8 -13 50.59 3.5
-4 8 -13 9.7 1.4
2 7 -13 10.3 1.4
-2 -7 13 11.3 1.6
1 7 -13 40.9 3.6
-1 -7 13 43.3 3.6
0 7 -13 2.5 1.4
0 7 -13 1.9 2.3
-1 7 -13 102.19 5.8
-1 7 -13 103.29 6.2
-2 7 -13 108.79 5.8
-2 7 -13 118.09 6.6
-3 7 -13 1 1.3
-4 7 -13 2.4 1.2
-3 -6 13 58.39 3.7
2 6 -13 2 1.9
-2 -6 13 2.1 1.7
1 6 -13 83.49 6.1
-1 -6 13 91.29 5.6
0 6 -13 -0.2 1.9
0 6 -13 -0.3 1.5
-1 6 -13 1.7 1.9
-1 6 -13 1.5 1.8
-2 6 -13 97.19 9
-2 6 -13 97.39 7
-3 6 -13 2.6 1.8
-4 6 -13 1.6 1.8
-5 6 -13 46.5 2.9
-4 -5 13 57.19 3
3 5 -13 3 1
3 5 -13 2.8 2.5
-3 -5 13 2.3 1.7
2 5 -13 11.4 1.7
2 5 -13 8.8 2.1
-2 -5 13 10 2.3
1 5 -13 7.8 2.2
1 5 -13 7.2 2.8
1 5 -13 9.2 1.7
-1 -5 13 9.5 2.4
0 5 -13 40.6 4.3
0 5 -13 39.1 4.1
0 -5 13 34.9 4.6
-1 5 -13 229.68 11.2
-1 5 -13 226.68 10.7
-2 5 -13 0.5 1.9
-2 5 -13 -0.1 1.9
-4 5 -13 2.9 1.7
-5 5 -13 62.09 3.9
4 4 -13 1 0.8
-4 -4 13 1.9 1.1
3 4 -13 28.2 3.2
3 4 -13 28.3 2.8
-3 -4 13 33.6 3.5
2 4 -13 7.6 2.2
-2 -4 13 10.1 2.4
1 4 -13 18.7 3
1 4 -13 19.2 3.2
1 4 -13 19.2 2.5
-1 -4 13 21.8 3.6
-1 -4 13 16.9 3
0 4 -13 262.87 11.7
0 4 -13 259.07 12
0 4 -13 241.28 10.2
0 -4 13 259.27 11.8
0 -4 13 256.77 11.4
-1 4 -13 30.9 3.9
-1 4 -13 27.7 3.8
-1 4 -13 26.5 4.2
-1 4 -13 26.3 3
1 -4 13 22.1 3.4
1 -4 13 25 3.5
-2 4 -13 22.9 3.2
-2 4 -13 23.6 3.7
-2 4 -13 21.6 4.4
2 -4 13 25.1 3.3
2 -4 13 26.9 3.6
-3 4 -13 4 2.2
-4 4 -13 1.7 1.7
4 -4 13 -0.2 1.5
-5 4 -13 0.6 1.2
5 3 -13 24.7 1.7
4 3 -13 -0.6 0.9
-4 -3 13 -1.5 1.1
-4 -3 13 0.5 3.3
3 3 -13 60.69 4.7
2 3 -13 82.19 5.9
2 3 -13 84.99 5.9
2 3 -13 91.89 5.6
-2 -3 13 80.19 9.7
-2 -3 13 89.89 6
1 3 -13 92.59 5.5
1 3 -13 91.89 6.5
-1 -3 13 87.99 6.3
-1 -3 13 93.89 6.1
0 3 -13 317.87 12.4
0 3 -13 338.87 13.9
0 3 -13 304.47 13.5
0 -3 13 309.77 13.7
0 -3 13 293.77 12.8
-1 3 -13 79.79 6
-1 3 -13 81.29 6.2
-1 3 -13 75.09 4.7
1 -3 13 77.79 5.4
1 -3 13 80.69 5.7
-2 3 -13 153.58 12
2 -3 13 224.78 12.6
2 -3 13 201.08 12.5
-3 3 -13 1.1 2.2
-3 3 -13 1.6 1.2
3 -3 13 -0.3 1.7
-4 3 -13 119.39 6.8
5 -3 13 -0.2 0.9
5 2 -13 40.7 2.6
-5 -2 13 41.1 2.4
-5 -2 13 37.9 2.8
4 2 -13 42.1 3.6
-4 -2 13 42 3.6
-4 -2 13 33.1 4.4
3 2 -13 511.05 20.1
3 2 -13 564.54 20.7
-3 -2 13 532.25 21.2
-3 -2 13 568.54 20.8
2 2 -13 520.05 24.2
-2 -2 13 546.95 23.2
-2 -2 13 507.55 21.3
1 2 -13 126.29 7.6
1 2 -13 135.09 7
1 2 -13 128.39 7.4
-1 -2 13 118.99 6.8
-1 -2 13 130.19 7.9
0 2 -13 9 2.6
0 2 -13 13.1 2.9
0 2 -13 9.6 1.9
0 -2 13 13.3 2.4
0 -2 13 13 2.6
-1 2 -13 453.65 16.4
-1 2 -13 423.66 17.5
-1 2 -13 445.46 18
1 -2 13 407.96 16.5
1 -2 13 447.56 17.9
-2 2 -13 89.49 7
-2 2 -13 83.59 6.4
2 -2 13 81.19 6.4
2 -2 13 91.29 8.5
-3 2 -13 70.59 5.9
-3 2 -13 65.79 4.3
-4 2 -13 60.99 3.4
-4 2 -13 54.09 4.7
5 -2 13 54.69 3
5 1 -13 -0.1 0.9
-5 -1 13 1.1 1.2
-5 -1 13 -0.6 1.1
4 1 -13 2 1.8
-4 -1 13 0 1.5
-4 -1 13 3.1 1.9
3 1 -13 88.89 6
3 1 -13 93.99 6
-3 -1 13 92.79 6.6
-3 -1 13 101.39 6.1
2 1 -13 189.28 10.1
2 1 -13 194.08 9.4
2 1 -13 207.38 9.4
2 1 -13 193.58 9.7
-2 -1 13 196.18 9.5
-2 -1 13 197.58 11.2
-2 -1 13 206.98 10.5
1 1 -13 4.1 2.2
1 1 -13 4.3 3
1 1 -13 3.5 2.3
1 1 -13 5.4 1.8
-1 -1 13 4.4 1.8
-1 -1 13 2.3 2.2
0 1 -13 933.71 33.1
0 1 -13 921.01 32
0 -1 13 869.21 31.8
0 -1 13 953.2 34.9
-1 1 -13 1727.83 56.29
-1 1 -13 1679.93 57.09
-1 1 -13 1712.83 55.59
1 -1 13 1641.94 57.09
1 -1 13 1574.74 55.29
-2 1 -13 2204.58 71.49
2 -1 13 2194.98 74.19
2 -1 13 2132.09 71.59
-3 1 -13 109.99 6
-4 1 -13 0.8 1
5 -1 13 -0.4 0.6
5 0 -13 9.4 1.7
5 0 -13 16.6 2.1
-5 0 13 11 1.7
4 0 -13 14.1 2.6
4 0 -13 20.8 3
-4 0 13 11.3 2.4
-4 0 13 17.3 2.8
3 0 -13 1025.7 36.4
3 0 -13 1042.4 35.8
-3 0 13 1041 36.6
-3 0 13 1030.6 35.9
2 0 -13 2.8 2.6
2 0 -13 4.4 2.2
2 0 -13 1.3 1.8
-2 0 13 4.1 2
-2 0 13 1.8 2.5
1 0 -13 7.5 2.3
1 0 -13 14.3 2.8
1 0 -13 11.1 2.6
1 0 -13 8 2.8
-1 0 13 13 2.3
-1 0 13 9 3.9
-1 0 13 13.3 3.9
0 0 -13 170.78 9.2
0 0 -13 163.58 8.1
0 0 -13 175.38 8.4
0 0 -13 158.08 9.3
0 0 13 170.08 8.2
0 0 13 158.58 10.1
0 0 13 179.28 11.3
-1 0 -13 1228.08 41.3
-1 0 -13 1212.78 41.3
-1 0 -13 1199.98 42.7
1 0 13 1154.28 42.8
1 0 13 1234.28 41.1
-2 0 -13 190.98 9.2
2 0 13 200.58 9.1
-3 0 -13 1.9 1.4
-4 0 -13 2.9 1.1
4 0 13 5.2 1.3
5 -1 -13 0 1.3
5 -1 -13 3.8 1.3
-5 1 13 1.8 1
4 -1 -13 116.99 6.7
4 -1 -13 114.69 6.3
-4 1 13 104.99 6.3
-4 1 13 111.89 6
3 -1 -13 0.3 1.9
3 -1 -13 -1 1.6
-3 1 13 7.2 2.3
-3 1 13 2.8 1.8
2 -1 -13 171.88 8.8
2 -1 -13 168.88 8.5
-2 1 13 176.98 9
-2 1 13 172.88 8.5
1 -1 -13 177.68 9.5
1 -1 -13 185.98 8.6
1 -1 -13 166.38 8.6
-1 1 13 165.48 8.9
-1 1 13 174.68 8.4
0 -1 -13 -0.4 2.2
0 -1 -13 -1.6 1.5
0 -1 -13 -2.8 1.8
0 1 13 2.4 1.5
0 1 13 -1 2.2
0 1 13 -3.3 3.6
-1 -1 -13 66.19 7.8
-1 -1 -13 60.49 4.8
1 1 13 55.99 4.3
1 1 13 65.49 8.8
-2 -1 -13 1.5 2.4
-2 -1 -13 2.6 1.7
2 1 13 10.3 2.8
2 1 13 1.3 1.4
-3 -1 -13 -0.4 1.1
3 1 13 1.1 1.1
3 1 13 1.7 2.5
-4 -1 -13 3.8 0.9
4 1 13 4.7 1
5 -2 -13 11.7 2.2
5 -2 -13 10.9 1.8
-5 2 13 15.5 2.1
4 -2 -13 3 2
4 -2 -13 1 1.3
-4 2 13 1 1.4
3 -2 -13 9.7 2.2
3 -2 -13 9.6 2.7
-3 2 13 9.2 2.5
-3 2 13 11.2 2.3
2 -2 -13 9 2.7
2 -2 -13 4.2 2
-2 2 13 10.3 2.3
-2 2 13 5.3 2
1 -2 -13 38.8 4.3
1 -2 -13 37.3 5.4
1 -2 -13 28.4 5.6
-1 2 13 36.8 4.3
-1 2 13 40.2 4.6
0 -2 -13 20 2.9
0 -2 -13 21.6 3.2
0 -2 -13 18 4
0 2 13 23.7 3.2
0 2 13 22.5 3
-1 -2 -13 169.48 8.5
-1 -2 -13 160.08 8.1
1 2 13 169.98 8
1 2 13 158.68 8.4
-2 -2 -13 55.59 4.5
-2 -2 -13 59.89 4.4
2 2 13 60.99 4.7
2 2 13 61.39 4.1
-3 -2 -13 2.1 1.4
3 2 13 3 1.5
3 2 13 2.2 1.2
-4 -2 -13 1.7 0.9
5 -3 -13 9.6 1.6
-5 3 13 7.4 1.4
4 -3 -13 56.39 4.2
-4 3 13 58.89 4.2
3 -3 -13 16.7 3.3
3 -3 -13 23.9 3.2
-3 3 13 18.4 2.8
2 -3 -13 114.99 7.2
2 -3 -13 126.99 6.9
-2 3 13 116.29 6.7
-2 3 13 127.19 7
1 -3 -13 396.86 15.8
1 -3 -13 387.26 16.2
-1 3 13 395.66 15.2
-1 3 13 403.86 15.9
0 -3 -13 10.1 2.3
0 -3 -13 8 2
0 3 13 10.6 2.1
0 3 13 9.5 2.2
-1 -3 -13 116.39 6.5
-1 -3 -13 104.89 6.4
1 3 13 108.19 6.4
1 3 13 106.89 5.8
-2 -3 -13 14.4 2.2
-2 -3 -13 19 2.6
2 3 13 21.8 2.8
2 3 13 23.9 3.1
-3 -3 -13 31.9 2.6
3 3 13 31.6 2.5
5 -4 -13 27.9 2.4
-5 4 13 29.2 2
4 -4 -13 2.4 1.3
-4 4 13 2.5 1.2
3 -4 -13 487.15 18.1
-3 4 13 466.05 17.9
1 -4 -13 2.2 2.4
1 -4 -13 -0.8 1.6
-1 4 13 -0.2 1.7
0 -4 -13 75.99 5
0 -4 -13 81.49 5.6
0 4 13 80.09 5.1
-1 -4 -13 183.28 10.3
-1 -4 -13 205.48 8.7
1 4 13 196.68 8.7
-2 -4 -13 74.49 4.3
-2 -4 -13 67.39 3.9
2 4 13 65.59 3.8
5 -5 -13 8.4 1.2
4 -5 -13 1.2 1
-4 5 13 0.1 0.8
3 -5 -13 39.4 3.4
-3 5 13 37.5 3
2 -5 -13 117.59 6.2
-2 5 13 116.19 5.9
1 -5 -13 10.9 1.9
-1 5 13 14.1 2
0 -5 -13 7.2 1.5
0 5 13 9.7 1.7
-1 -5 -13 36.1 3.2
-1 -5 -13 30.4 2.5
1 5 13 35.3 2.6
4 -6 -13 -0.3 0.8
3 -6 -13 15.4 2.1
-3 6 13 13 1.5
2 -6 -13 1.3 1.1
-2 6 13 1 0.9
1 -6 -13 0.5 0.9
-1 6 13 0.5 0.7
0 -6 -13 3.3 1
0 6 13 3.7 1
2 -7 -13 0.7 0.7
1 8 -14 5.3 0.9
0 8 -14 33.7 2.5
-1 8 -14 4.2 2.3
-1 8 -14 8.4 1.5
-2 8 -14 0.1 1.1
-2 8 -14 -0.5 1.1
-3 8 -14 45.7 3
2 7 -14 9.7 1.5
-2 -7 14 8 1.7
1 7 -14 111.49 5.4
-1 -7 14 105.29 5.2
0 7 -14 0.6 2.9
0 7 -14 -0.4 1.1
-1 7 -14 50.99 3.8
-1 7 -14 42.5 4
-2 7 -14 47.9 4
-2 7 -14 56.99 4
-3 7 -14 25.3 3
-4 7 -14 5.4 1.4
-3 -6 14 6.1 1.1
2 6 -14 2.1 1.2
-2 -6 14 -0.2 1.3
1 6 -14 -0.2 1.9
1 6 -14 0.5 1.3
-1 -6 14 3.5 1.8
0 6 -14 15.8 2.5
0 6 -14 17.3 3
0 -6 14 21.9 3.3
-1 6 -14 49.4 4.4
-1 6 -14 42.5 4.4
-2 6 -14 19.3 2.6
-2 6 -14 19.1 2.9
-3 6 -14 1 1.4
-4 6 -14 -0.3 1
3 5 -14 42.4 2.4
-3 -5 14 41.3 3.2
2 5 -14 1.8 1
2 5 -14 4.4 1.6
-2 -5 14 0.4 1.5
1 5 -14 5.7 1.5
-1 -5 14 7.9 2.3
0 5 -14 196.48 9.9
0 5 -14 206.88 9.8
0 -5 14 193.58 9.5
-1 5 -14 535.55 21
-1 5 -14 542.75 20.6
-2 5 -14 64.99 5.3
-3 5 -14 1.7 1.7
-4 5 -14 11.8 1.9
-5 5 -14 4.7 1.5
4 4 -14 81.39 4.1
-4 -4 14 98.39 4.4
3 4 -14 0.7 1
3 4 -14 2 1.6
-3 -4 14 1.2 1.3
2 4 -14 2.2 1.9
-2 -4 14 3.7 2.2
1 4 -14 1.4 1.9
1 4 -14 2.9 2
1 4 -14 1.5 1.4
-1 -4 14 0.2 1.8
0 4 -14 112.69 5.8
0 4 -14 119.89 7.2
0 4 -14 125.39 7.4
0 -4 14 110.79 9.8
0 -4 14 113.29 6.8
-1 4 -14 7.9 2.4
-1 4 -14 7.1 1.7
-1 4 -14 6.7 2.3
1 -4 14 5.2 2.2
-2 4 -14 222.38 10.3
-2 4 -14 238.48 11.2
2 -4 14 223.48 10
-3 4 -14 2.7 1.9
3 -4 14 4.4 1.8
-4 4 -14 0.3 1.4
4 -4 14 0.4 1.4
4 3 -14 14.9 1.8
-4 -3 14 11 1.7
3 3 -14 20.2 2.7
-3 -3 14 18.4 2.7
2 3 -14 27.3 3.2
2 3 -14 27.8 3.8
-2 -3 14 28.8 3.7
1 3 -14 104.89 5.9
1 3 -14 105.99 6.6
-1 -3 14 97.79 7.2
-1 -3 14 92.19 6.2
0 3 -14 278.27 13.6
0 3 -14 278.17 13.3
0 -3 14 279.17 12.2
0 -3 14 320.27 14.5
-1 3 -14 118.49 6.5
-1 3 -14 108.79 7
1 -3 14 111.79 7.4
1 -3 14 107.09 8.3
-2 3 -14 -1.2 2
-2 3 -14 1.5 2.1
-2 3 -14 0.7 1.3
2 -3 14 -1.4 1.6
-3 3 -14 35.7 4.5
-3 3 -14 38.7 2.8
3 -3 14 39.4 3.5
-4 3 -14 282.37 11.1
4 -3 14 275.27 10.8
5 2 -14 1.1 0.7
4 2 -14 70.89 4.6
-4 -2 14 84.89 4.8
-4 -2 14 80.69 5
3 2 -14 38.3 4.1
-3 -2 14 25.1 3.6
2 2 -14 0.8 1.7
-2 -2 14 2 1.8
1 2 -14 190.48 10.6
1 2 -14 207.88 10.1
1 2 -14 199.08 9.8
-1 -2 14 200.58 10.8
-1 -2 14 194.58 9.5
0 2 -14 288.47 13
0 2 -14 287.67 13.4
0 2 -14 313.87 12.3
0 -2 14 303.37 13.6
0 -2 14 285.87 12.3
-1 2 -14 250.47 13.5
-1 2 -14 241.38 11.7
1 -2 14 256.77 13.4
1 -2 14 247.58 11.2
-2 2 -14 14.8 2.9
-2 2 -14 11.8 1.9
2 -2 14 13.6 2.3
-3 2 -14 12.4 1.9
-3 2 -14 8.2 2.4
3 -2 14 14.1 2.3
-4 2 -14 192.88 7.2
4 -2 14 200.98 8.3
-5 -1 14 24.1 2.3
4 1 -14 0.4 1.7
-4 -1 14 3 1.4
-4 -1 14 0.6 1.7
3 1 -14 257.77 11.3
-3 -1 14 251.57 11.2
2 1 -14 138.89 12.5
2 1 -14 154.38 8
2 1 -14 149.59 7.6
-2 -1 14 157.18 8
-2 -1 14 150.98 10.5
-2 -1 14 149.39 9
1 1 -14 1.9 2.1
1 1 -14 4.5 1.7
1 1 -14 7.5 3
-1 -1 14 7.7 2
-1 -1 14 2.5 2.7
0 1 -14 324.67 13.1
0 1 -14 297.97 13.5
0 1 -14 320.47 14.3
0 -1 14 326.07 14.6
0 -1 14 307.67 12.9
-1 1 -14 489.85 25.4
-1 1 -14 478.25 19
-1 1 -14 482.75 20.3
-2 1 -14 616.34 22
2 -1 14 591.64 22
-3 1 -14 5.5 1.5
3 -1 14 3.9 1.5
-4 1 -14 20.7 1.9
4 -1 14 19.8 2.2
5 0 -14 42.6 2.8
5 0 -14 46.6 3.3
-5 0 14 55.99 3.3
4 0 -14 970.5 32.8
4 0 -14 923.71 32
-4 0 14 923.81 32
-4 0 14 938.11 32.8
3 0 -14 1135.49 38.8
3 0 -14 1126.09 39.6
-3 0 14 1131.49 39.1
-3 0 14 1172.68 39.9
2 0 -14 119.59 6.6
2 0 -14 115.09 6.9
2 0 -14 108.59 8.1
-2 0 14 119.89 6.7
-2 0 14 107.79 7.3
1 0 -14 2 2.5
1 0 -14 5 2.3
1 0 -14 7.1 2.8
1 0 -14 5.6 2.1
-1 0 14 9.7 3.8
-1 0 14 5.5 2.9
-1 0 14 4.9 1.8
0 0 -14 125.69 7
0 0 -14 128.89 8.1
0 0 -14 113.19 6.8
0 0 14 119.89 8.8
0 0 14 116.29 7.8
0 0 14 133.19 6.9
-1 0 -14 498.55 21.3
-1 0 -14 540.05 19.8
1 0 14 499.55 22.1
1 0 14 547.15 19.6
-2 0 -14 49.2 4.2
2 0 14 48.1 3.9
-3 0 -14 14 2.1
3 0 14 17.4 2.4
-4 0 -14 6.1 1.1
4 0 14 7.1 1.2
5 -1 -14 43.5 3.2
5 -1 -14 48.4 3
-5 1 14 51.89 3.3
4 -1 -14 336.27 12.9
4 -1 -14 295.37 13
-4 1 14 340.47 13.3
-4 1 14 321.67 12.5
3 -1 -14 10.5 2.5
3 -1 -14 11.8 2.6
-3 1 14 14.7 2.7
-3 1 14 14.7 2.6
2 -1 -14 0.6 1.8
2 -1 -14 1.5 1.8
-2 1 14 1.6 1.7
-2 1 14 -1.3 1.8
1 -1 -14 9.5 3.1
1 -1 -14 5.8 2.1
1 -1 -14 8.4 2.3
-1 1 14 4.2 2.5
-1 1 14 3.5 1.7
0 -1 -14 152.78 7.8
0 -1 -14 154.18 9.4
0 -1 -14 160.68 8.1
0 1 14 159.58 7.8
0 1 14 141.09 8.2
-1 -1 -14 450.35 16.9
-1 -1 -14 438.06 17.4
1 1 14 466.85 17.1
1 1 14 431.26 17.5
-2 -1 -14 26.9 3.1
2 1 14 24.2 3.2
2 1 14 28.3 2.9
-3 -1 -14 0.6 0.9
3 1 14 -0.5 2.2
3 1 14 0.3 0.9
-4 -1 -14 6.9 1
4 1 14 6.6 1
5 -2 -14 2.2 2.1
5 -2 -14 -0.2 0.9
-5 2 14 0.1 0.8
4 -2 -14 3 2.1
4 -2 -14 4 1.6
-4 2 14 2.9 1.5
3 -2 -14 11.4 2.5
-3 2 14 7.5 2.3
2 -2 -14 67.79 5.3
2 -2 -14 75.69 5.2
-2 2 14 74.19 5.3
-2 2 14 71.29 5.1
1 -2 -14 43.6 4.4
1 -2 -14 42.7 4
-1 2 14 38.2 4.2
-1 2 14 41.7 3.9
0 -2 -14 420.26 16.7
0 -2 -14 457.95 17.4
0 2 14 437.06 16.5
0 2 14 431.26 17.2
1 2 14 290.57 15.3
-2 -2 -14 1.9 1.4
-2 -2 -14 1 1.8
2 2 14 0.8 1.2
2 2 14 2.3 1.6
-3 -2 -14 27 2.3
3 2 14 30 2.2
3 2 14 26.9 2.6
5 -3 -14 -0.3 0.8
-5 3 14 0.2 0.7
4 -3 -14 9 3
4 -3 -14 15.2 2.3
-4 3 14 10.9 1.7
3 -3 -14 104.89 6.4
3 -3 -14 86.79 5.7
-3 3 14 96.79 5.8
2 -3 -14 7.9 2
2 -3 -14 2.7 2.2
-2 3 14 8.7 2.4
-2 3 14 5.3 2.4
1 -3 -14 5.4 1.9
-1 3 14 9.2 2.1
0 -3 -14 15.3 3
0 -3 -14 12.8 2.4
0 3 14 10.9 2.3
0 3 14 14.1 2.3
-1 -3 -14 3.2 1.8
-1 -3 -14 1.5 1.4
1 3 14 0.3 1.3
1 3 14 3.1 1.4
-2 -3 -14 19.8 2.5
-2 -3 -14 12.3 2.3
2 3 14 18.7 2.3
2 3 14 17.7 1.9
-3 -3 -14 0.4 0.7
5 -4 -14 0.5 0.8
-5 4 14 0.6 0.6
4 -4 -14 5.3 1.4
-4 4 14 4.7 1.3
3 -4 -14 11.5 2.1
-3 4 14 17.3 2.4
2 -4 -14 8.1 2
-2 4 14 5.9 1.7
1 -4 -14 27.2 3.1
1 -4 -14 26.6 3.5
-1 4 14 23 2.8
0 -4 -14 14.5 3
0 -4 -14 20.8 2.5
0 4 14 18 2.4
-1 -4 -14 50.89 3.8
-1 -4 -14 52.49 3.4
1 4 14 53.69 3.6
-2 -4 -14 7.7 1.3
2 4 14 7.7 1.2
4 -5 -14 162.48 6.7
-4 5 14 155.78 6.3
3 -5 -14 98.89 5.3
-3 5 14 99.49 4.8
2 -5 -14 0.8 1.5
-2 5 14 0.6 1.1
1 -5 -14 5 1.9
0 -5 -14 2.8 2.7
0 -5 -14 0.7 1
0 5 14 1.2 0.9
-1 -5 -14 25.6 2
1 5 14 30.4 2.1
3 -6 -14 6.3 1.1
2 -6 -14 5.2 1.1
-2 6 14 6.9 1
1 -6 -14 2.8 1.3
-1 6 14 1.6 0.7
0 8 -15 5.4 1
-1 8 -15 26.6 2.7
-1 8 -15 25.9 2.7
-2 8 -15 36.8 2.6
-2 8 -15 33.3 2.8
-3 8 -15 39.1 2.7
1 7 -15 4.3 1.1
0 7 -15 16.2 2.1
0 7 -15 8.8 2.2
-1 7 -15 7.1 1.5
-1 7 -15 8.1 2
-2 7 -15 8.1 1.5
-2 7 -15 9.7 1.8
-3 7 -15 1.5 1.2
2 6 -15 39.1 2.8
-2 -6 15 40.7 3.1
1 6 -15 0.7 1.2
-1 -6 15 -0.2 1.5
0 6 -15 70.99 4.7
0 6 -15 68.79 5.4
0 -6 15 68.79 4.8
-1 6 -15 2.7 1.6
-1 6 -15 3.9 1.8
-2 6 -15 1.5 1.6
-2 6 -15 2.7 1.9
-3 6 -15 2.1 1.5
-4 6 -15 0.9 1.1
-3 -5 15 21.5 2.2
2 5 -15 2 1.5
2 5 -15 2.1 0.9
-2 -5 15 -0.2 1.8
1 5 -15 0.3 1
1 5 -15 -0.9 2.1
1 5 -15 0.7 1.5
-1 -5 15 1.8 1.6
0 5 -15 7.4 2.5
0 5 -15 12.8 2.9
0 -5 15 12.3 2.5
-1 5 -15 119.39 7
-1 5 -15 124.79 10
1 -5 15 112.29 6.6
-2 5 -15 20.8 2.7
-2 5 -15 20.5 3
-3 5 -15 0.7 1.4
-4 5 -15 6.4 1.4
4 4 -15 149.09 5.4
-4 -4 15 141.79 5.8
3 4 -15 0 0.8
3 4 -15 0.2 1.9
-3 -4 15 1.7 1.2
2 4 -15 5.2 1.8
-2 -4 15 2.4 1.5
1 4 -15 10.8 2.6
1 4 -15 9.5 2.5
0 4 -15 27.4 3.7
0 4 -15 25.6 2.8
0 4 -15 20.5 3.2
0 -4 15 29.4 3.9
-1 4 -15 -0.4 1.8
-1 4 -15 0.4 1.3
-1 4 -15 -2.2 1.5
1 -4 15 -0.3 1.8
-2 4 -15 1.9 1.8
2 -4 15 1.9 1.7
-3 4 -15 102.69 6.1
3 -4 15 98.39 6.2
-4 4 -15 16.8 2.1
4 -4 15 18.5 2.3
4 3 -15 11.4 1.5
-4 -3 15 11.5 1.6
3 3 -15 49.6 4.2
-3 -3 15 54.39 4
2 3 -15 3.7 2.9
1 3 -15 332.37 13.6
1 3 -15 351.96 14.7
-1 -3 15 347.57 14.3
0 3 -15 120.49 7.4
0 3 -15 115.59 6.1
0 -3 15 113.99 6.6
-1 3 -15 8.3 1.8
-1 3 -15 6.2 2.3
1 -3 15 6.8 2
-2 3 -15 4.3 3.2
-3 3 -15 35.9 3.9
3 -3 15 47.5 3.4
-4 3 -15 24.9 3.3
4 -3 15 29.1 2.5
4 2 -15 29.1 2.6
-4 -2 15 30.3 2.7
-4 -2 15 25.8 3.1
3 2 -15 1.7 1.4
3 2 -15 2.2 1.9
-3 -2 15 2.8 1.5
-3 -2 15 3.3 2.7
2 2 -15 5 1.8
-2 -2 15 2.4 1.8
1 2 -15 977.6 34.2
1 2 -15 966.5 33.5
-1 -2 15 945.11 33.8
0 2 -15 105.19 6.7
0 2 -15 101.29 5.8
0 2 -15 91.19 11.1
0 -2 15 100.99 6.1
0 -2 15 96.79 8.4
-1 2 -15 88.09 5.2
-1 2 -15 92.99 6.3
1 -2 15 91.19 5.7
-2 2 -15 30.9 3
2 -2 15 30.9 3.3
-3 2 -15 2.4 1.1
-3 2 -15 2.3 2.2
3 -2 15 2.4 1.2
4 -2 15 2 1
5 1 -15 93.19 3.9
-5 -1 15 77.19 3.9
-4 -1 15 55.29 4
-4 -1 15 52.49 3.5
3 1 -15 97.79 5.8
3 1 -15 100.99 5.9
-3 -1 15 93.59 6.2
-3 -1 15 94.49 5.7
2 1 -15 5.4 2
-2 -1 15 5.4 2.9
-2 -1 15 3.9 1.7
1 1 -15 151.58 7.9
1 1 -15 156.28 8.3
-1 -1 15 156.78 8
0 1 -15 2.1 3.2
0 1 -15 1.2 2.1
0 1 -15 3.4 1.7
0 -1 15 0.8 1.6
0 -1 15 -2.8 3.5
-1 1 -15 48 5
-1 1 -15 60.69 4.3
1 -1 15 56.49 4.4
-3 1 -15 0 0.9
3 -1 15 -0.8 1
-4 1 -15 -0.1 0.7
4 -1 15 1 0.8
5 0 -15 26.3 2
-5 0 15 25.4 2.1
4 0 -15 104.79 5.3
4 0 -15 104.29 6.8
-4 0 15 129.19 6.8
-4 0 15 107.69 5.4
3 0 -15 190.88 9.2
3 0 -15 182.08 8.5
-3 0 15 192.28 9.4
-3 0 15 193.98 8.9
2 0 -15 25.5 3.5
2 0 -15 30 3.7
-2 0 15 25.7 3.3
-2 0 15 28.5 3.9
1 0 -15 15.3 2.6
1 0 -15 12.2 2.7
-1 0 15 12.8 2.4
-1 0 15 9.9 2.9
0 0 -15 27.1 3.4
0 0 -15 18.8 3.6
0 0 15 19.9 2.8
0 0 15 17.4 3.3
-1 0 -15 214.38 9.7
1 0 15 205.28 9.5
-2 0 -15 167.28 8.1
2 0 15 180.78 8.1
-3 0 -15 0.1 1
3 0 15 1.4 1.1
-4 0 -15 1.6 0.7
4 0 15 1.7 0.7
5 -1 -15 1.7 1.2
5 -1 -15 0.7 1.3
-5 1 15 1.6 0.9
4 -1 -15 1.3 1.4
4 -1 -15 2.9 1.7
-4 1 15 6.3 1.8
-4 1 15 2.4 1.4
3 -1 -15 33 3.7
3 -1 -15 33.1 3.5
-3 1 15 33.9 3.6
-3 1 15 33 3.7
2 -1 -15 4.7 1.9
2 -1 -15 2.5 1.8
-2 1 15 4.9 2
-2 1 15 4.3 1.8
1 -1 -15 31.7 3.6
1 -1 -15 29.7 3.7
-1 1 15 30.5 3.5
-1 1 15 29.6 4
0 -1 -15 284.17 11.8
0 -1 -15 286.57 12.3
0 1 15 281.07 12.5
0 1 15 294.17 11.9
-1 -1 -15 1068.09 35.9
1 1 15 1075.69 37.1
-2 -1 -15 55.29 3.9
2 1 15 43.7 4.5
2 1 15 50.59 3.7
-3 -1 -15 0.3 0.8
3 1 15 -0.7 0.8
5 -2 -15 49 2.8
-5 2 15 59.59 3
4 -2 -15 384.16 15.1
4 -2 -15 386.66 14.7
3 -2 -15 14.6 2.6
3 -2 -15 8.4 1.9
-3 2 15 14.3 2.3
-3 2 15 11.7 2.3
2 -2 -15 12.3 2.4
-2 2 15 16.5 2.5
-2 2 15 14.8 4.3
1 -2 -15 84.49 5.4
-1 2 15 89.49 6.1
-1 2 15 82.59 6
0 -2 -15 570.14 20.9
0 -2 -15 580.94 23.1
0 2 15 537.85 21.6
0 2 15 568.94 21.1
-1 -2 -15 24.4 3.1
-1 -2 -15 26.6 3.2
1 2 15 28.4 3.3
1 2 15 27.6 2.8
-2 -2 -15 8 1.9
2 2 15 7.6 1.4
2 2 15 5.5 1.6
-3 -2 -15 1.4 0.7
3 2 15 1.7 0.8
5 -3 -15 37.4 2.3
-5 3 15 46.2 2.3
4 -3 -15 83.39 5.2
4 -3 -15 89.79 4.7
-4 3 15 87.39 4.6
3 -3 -15 42.6 4.2
3 -3 -15 39.2 3.6
-3 3 15 45.4 3.6
2 -3 -15 52.99 4.4
2 -3 -15 50.49 4
-2 3 15 42.8 3.9
1 -3 -15 38.1 4
1 -3 -15 41.3 3.6
-1 3 15 46.5 4
-1 3 15 38 3.6
0 -3 -15 197.58 9.3
0 -3 -15 208.68 9
0 3 15 209.78 8.6
0 3 15 202.78 9.3
-1 -3 -15 1.9 1.4
-1 -3 -15 1.4 1.3
1 3 15 1.2 1.3
1 3 15 0.4 1.2
-2 -3 -15 4.3 1.2
2 3 15 3.2 1.1
4 -4 -15 68.29 3.7
-4 4 15 67.09 3.5
3 -4 -15 6.9 1.6
-3 4 15 6.3 1.4
2 -4 -15 19.9 2.5
2 -4 -15 15.3 2.8
-2 4 15 20.8 2.4
1 -4 -15 -0.4 1.1
1 -4 -15 -0.5 1.7
-1 4 15 1.7 1.2
0 -4 -15 28 2.7
0 -4 -15 31.7 3.2
0 4 15 33.3 2.8
-1 -4 -15 20.2 1.9
-1 -4 -15 24.4 2.4
1 4 15 23 2.1
3 -5 -15 54.99 3.2
-3 5 15 51.29 2.8
2 -5 -15 39.2 2.8
-2 5 15 36.1 2.6
1 -5 -15 13.4 1.8
-1 5 15 12.9 1.6
0 -5 -15 9.8 1.3
0 5 15 9.6 1.4
-1 8 -16 7.9 1.2
1 7 -16 38.1 2.4
0 7 -16 1.8 0.9
-1 7 -16 0.7 1.6
-1 7 -16 2.3 1
-2 7 -16 0.1 1.1
-2 7 -16 0.7 1.1
-3 7 -16 4.6 1.1
2 6 -16 3 1
-2 -6 16 4 1.1
1 6 -16 1.1 1
-1 -6 16 -0.1 1.4
0 6 -16 0.4 2
0 6 -16 2.1 1.3
0 -6 16 -0.4 1.8
-1 6 -16 -0.9 1.2
-1 6 -16 0.8 1.5
-2 6 -16 0.6 1.3
-2 6 -16 0.6 1.4
-3 6 -16 -0.9 1
-3 -5 16 1.3 0.9
2 5 -16 0.1 1
-2 -5 16 1.3 1.2
1 5 -16 4 2.1
1 5 -16 1.7 1.5
-1 -5 16 5 1.7
0 5 -16 8.9 2.3
0 5 -16 7.9 1.9
0 -5 16 6.7 2.1
-1 5 -16 0.4 1.4
-1 5 -16 1.3 1.5
1 -5 16 4.4 2.3
-2 5 -16 20.2 2.8
-2 5 -16 19.3 2.9
-3 5 -16 2.1 1.2
-4 5 -16 4.7 1.1
3 4 -16 24.7 1.8
3 4 -16 19.9 2.3
-3 -4 16 23.3 2.4
2 4 -16 -0.4 1.3
2 4 -16 -0.3 0.9
-2 -4 16 0.8 1.3
1 4 -16 2.4 1.3
1 4 -16 3.6 1.9
1 4 -16 1.8 1.8
-1 -4 16 2.7 1.8
0 4 -16 108.19 5.3
0 4 -16 127.89 7.2
0 4 -16 104.69 6.7
0 -4 16 109.99 6.4
-1 4 -16 118.79 6.8
-1 4 -16 109.99 4.9
-1 4 -16 112.59 6.6
1 -4 16 112.09 6.2
-2 4 -16 5.5 1.9
-2 4 -16 3.6 2
2 -4 16 4.4 1.7
-3 4 -16 53.69 4.1
3 -4 16 52.89 3.4
4 3 -16 0.9 0.6
-4 -3 16 1.4 0.8
3 3 -16 36.6 3.4
3 3 -16 28.4 2.9
-3 -3 16 22.4 3.3
2 3 -16 88.79 5.6
2 3 -16 90.49 5.2
-2 -3 16 93.09 5.6
-1 -3 16 -0.2 2.2
0 3 -16 468.85 18.4
0 3 -16 474.05 17.3
0 -3 16 462.45 18
1 -3 16 1.1 2.3
-2 3 -16 11.6 2.3
-2 3 -16 12.2 1.6
-2 3 -16 13.1 2.4
2 -3 16 11 2.1
-3 3 -16 9.4 1.9
3 -3 16 11.3 1.7
4 -3 16 5.9 1.1
4 2 -16 3 0.9
-4 -2 16 3.7 1.1
-4 -2 16 4.8 2.1
3 2 -16 -1.1 1.5
3 2 -16 0.6 1.1
-3 -2 16 0.6 1.3
-3 -2 16 1.2 2.5
2 2 -16 1.7 1.3
-2 -2 16 3.8 1.6
1 2 -16 1.4 1.6
1 2 -16 0.5 1.4
-1 -2 16 3.2 1.6
0 2 -16 3.2 2
0 2 -16 9.1 2
0 -2 16 14 2.4
-1 2 -16 29.1 3
1 -2 16 26.5 3.5
-2 2 -16 47.7 3.5
-2 2 -16 55.89 4.5
2 -2 16 48.5 3.8
-3 2 -16 1.1 0.9
3 -2 16 -0.9 1.1
4 -2 16 53.49 2.9
4 1 -16 23.9 2.3
-4 -1 16 25.3 2.3
-4 -1 16 25.3 3
3 1 -16 8.1 1.8
3 1 -16 10.4 2.2
-3 -1 16 3.7 2.4
-3 -1 16 10.9 2.1
2 1 -16 53.99 5.1
-2 -1 16 54.59 5.2
-2 -1 16 54.19 5.4
1 1 -16 96.79 6.2
1 1 -16 98.69 5.9
-1 -1 16 100.99 6.1
0 1 -16 22.4 2.9
0 1 -16 21.1 2.9
0 -1 16 25.3 3
-1 1 -16 190.68 8.9
-1 1 -16 185.58 10.1
1 -1 16 187.38 11.2
-2 1 -16 -0.7 1
2 -1 16 -1.7 1.1
-3 1 -16 92.59 4.5
3 -1 16 103.69 5
4 0 -16 19.8 2.4
-4 0 16 19.7 2.4
-4 0 16 23.9 2.7
3 0 -16 92.49 6
-3 0 16 100.19 5.8
-3 0 16 91.29 5.3
2 0 -16 6.7 2.1
2 0 -16 0.5 1.7
-2 0 16 3.9 2.3
-2 0 16 3.3 1.8
1 0 -16 12.5 2.4
-1 0 16 15.2 2.5
0 0 -16 125.89 6.8
0 0 16 115.79 7.7
0 0 16 124.79 6.5
-1 0 -16 15.8 2.4
1 0 16 17.8 2.6
-2 0 -16 8.2 1.6
2 0 16 11 1.7
-3 0 -16 91.89 4.3
3 0 16 86.29 4.3
4 -1 -16 233.88 9.2
4 -1 -16 214.18 8.9
-4 1 16 233.18 9.3
3 -1 -16 177.68 8.3
3 -1 -16 170.38 7.6
-3 1 16 176.38 8.3
-3 1 16 166.78 7.6
2 -1 -16 -0.2 1.5
2 -1 -16 0.7 1.7
-2 1 16 1.7 1.7
-2 1 16 0.5 1.5
1 -1 -16 9 2.6
1 -1 -16 10.8 2.4
-1 1 16 8.1 2.2
-1 1 16 14.2 3.4
0 -1 -16 189.88 8.5
0 -1 -16 202.18 9.3
0 1 16 202.88 8.8
0 1 16 183.18 9.2
-1 -1 -16 273.67 11.3
1 1 16 268.87 11.5
1 1 16 265.37 10.9
-2 -1 -16 4.4 1.4
2 1 16 0.4 2.1
2 1 16 3.9 1.5
-3 -1 -16 28.9 2.1
3 1 16 33.3 2
4 -2 -16 205.98 8.3
4 -2 -16 192.78 7.9
-4 2 16 203.18 8.3
3 -2 -16 2.8 1.4
3 -2 -16 1.9 1.6
-3 2 16 2.4 1.3
2 -2 -16 21.3 2.9
2 -2 -16 25.4 3.2
-2 2 16 25.1 3.1
-2 2 16 27 3.1
1 -2 -16 22 3
1 -2 -16 14 2.2
-1 2 16 25 3.2
-1 2 16 23.8 3.1
0 -2 -16 3.3 1.8
0 -2 -16 3.8 1.7
0 2 16 1.2 1.4
0 2 16 2.1 1.5
-1 -2 -16 1.2 1.2
1 2 16 -0.9 1.3
1 2 16 -0.3 1.4
-2 -2 -16 1.4 0.9
2 2 16 1.5 1.2
2 2 16 3.1 1.1
4 -3 -16 2.9 1.1
-4 3 16 2.8 1
3 -3 -16 14.7 2.5
3 -3 -16 21.3 2.4
-3 3 16 23.7 2.4
2 -3 -16 -3 1.6
2 -3 -16 -0.7 1.2
-2 3 16 -0.4 1.1
1 -3 -16 155.28 7.3
1 -3 -16 174.18 8.5
-1 3 16 154.18 7.5
-1 3 16 164.18 7.9
0 -3 -16 530.05 19
0 -3 -16 514.55 19.6
0 3 16 569.04 20.1
0 3 16 553.14 18.5
-1 -3 -16 23.2 2.3
1 3 16 21.9 2.3
-2 -3 -16 1.6 0.9
4 -4 -16 19.6 1.7
-4 4 16 23.8 1.6
3 -4 -16 5.4 1.2
-3 4 16 3.5 1
2 -4 -16 47.3 3.3
2 -4 -16 40.3 3.7
-2 4 16 44.9 3.2
1 -4 -16 181.68 7.4
1 -4 -16 176.18 7.7
-1 4 16 172.18 7.5
0 -4 -16 103.19 5
0 -4 -16 108.99 4.9
0 4 16 103.59 5
1 4 16 13.3 1.5
-3 5 16 22.4 1.5
2 -5 -16 0.4 0.7
-2 5 16 0 0.6
1 -5 -16 41.8 2.3
-1 5 16 33.8 2.1
0 7 -17 72.19 3.5
-1 7 -17 1.3 1.4
-1 7 -17 2.2 0.9
-2 7 -17 5.8 1.2
1 6 -17 5.6 1.2
-1 -6 17 2.8 1.2
0 6 -17 10.4 2.1
0 -6 17 5.7 1.6
-1 6 -17 17.3 2.4
-1 6 -17 17.7 2.1
-2 6 -17 25.4 2.3
-2 6 -17 28.8 2.7
-3 6 -17 28.1 2.2
2 5 -17 9.2 1.6
-2 -5 17 9.7 1.6
1 5 -17 7.9 1.6
-1 -5 17 11.6 2
0 5 -17 3.5 2.1
0 5 -17 2.6 1.6
0 -5 17 4.1 1.6
-1 5 -17 11.2 2.2
-1 5 -17 16.9 2.4
1 -5 17 14 2.2
-2 5 -17 10.4 1.9
-2 5 -17 10.9 1.9
-3 5 -17 21.5 2.5
3 4 -17 -0.4 0.7
-3 -4 17 0.3 0.9
2 4 -17 45.4 3.4
2 4 -17 44.2 2.7
-2 -4 17 46.6 3.4
1 4 -17 6.5 1.8
1 4 -17 6.5 1.8
-1 -4 17 11.5 2.2
0 4 -17 1.6 1.5
0 4 -17 2.4 1.8
0 4 -17 2.3 1.1
0 -4 17 2.6 1.6
-1 4 -17 2.9 1.6
-1 4 -17 3 1.7
1 -4 17 2.2 1.5
-2 4 -17 23.3 3.8
-2 4 -17 22.5 3
2 -4 17 25.8 2.7
-3 4 -17 4.7 1.6
3 -4 17 5.6 1.2
3 3 -17 0.2 0.7
3 3 -17 0.8 1.3
-3 -3 17 0.9 1
2 3 -17 50.49 3.4
2 3 -17 49.5 3.8
-2 -3 17 46 3.8
1 3 -17 43 3.9
1 3 -17 41.4 3.3
1 3 -17 38.7 3.8
-1 -3 17 45.9 4
0 3 -17 33.3 3
0 3 -17 35.2 3.7
0 3 -17 32 3.6
0 -3 17 36.5 3.6
-1 3 -17 147.59 7.5
-1 3 -17 140.29 6.3
-1 3 -17 144.89 7.4
1 -3 17 141.89 7
-2 3 -17 19.7 1.9
-2 3 -17 16.6 3
-2 3 -17 23.3 2.6
2 -3 17 21.8 2.7
-3 3 -17 -2 1.7
3 -3 17 0.8 0.9
4 2 -17 0.1 0.6
-4 -2 17 -0.5 0.8
3 2 -17 18.8 2.6
3 2 -17 19.2 2.3
-3 -2 17 20.4 2.3
2 2 -17 21.3 2.6
2 2 -17 12.8 2.2
-2 -2 17 21.5 2.8
1 2 -17 1.7 1.3
1 2 -17 1.3 1.5
-1 -2 17 1.7 1.4
0 2 -17 357.96 14.5
0 2 -17 362.16 14
0 -2 17 368.46 14.5
-1 2 -17 63.79 4
-1 2 -17 61.69 4.5
1 -2 17 63.29 4.3
-2 2 -17 0 2
-2 2 -17 0.7 1
-2 2 -17 1.9 1.8
2 -2 17 0.7 1.1
3 -2 17 17.2 1.9
4 1 -17 28.8 2.3
-4 -1 17 26.6 2.6
-4 -1 17 27.1 2.1
3 1 -17 1.6 1.5
-3 -1 17 3.4 1.8
-3 -1 17 0.4 1.3
2 1 -17 4.3 1.7
-2 -1 17 1.1 2.8
-2 -1 17 4.5 1.7
1 1 -17 278.07 11.9
-1 -1 17 294.17 12.1
0 1 -17 114.19 6.5
0 1 -17 122.89 6.4
0 -1 17 131.39 6.7
-1 1 -17 0.7 1.1
1 -1 17 -0.4 1.1
-2 1 -17 3.6 2.2
-2 1 -17 0.8 0.9
2 -1 17 1.2 1.2
-3 1 -17 22.6 1.7
3 -1 17 25.1 2.1
-4 0 17 42.4 2.8
3 0 -17 2.3 1.6
-3 0 17 1.3 1.2
-3 0 17 2.1 1.5
2 0 -17 144.29 7.2
-2 0 17 132.79 7.3
-2 0 17 140.29 7
1 0 -17 28.2 3.3
-1 0 17 37.8 3.5
-1 0 17 32.5 4.1
0 0 -17 103.39 5.8
0 0 17 107.39 6.5
0 0 17 104.99 5.8
-1 0 -17 10.4 1.8
1 0 17 12.2 1.9
-2 0 -17 2.9 1.1
2 0 17 2 1.1
-3 0 -17 -0.5 0.6
3 0 17 0.4 0.6
-4 1 17 8.1 1.4
3 -1 -17 1.7 1.3
3 -1 -17 2.9 1.3
-3 1 17 2.4 1.4
-3 1 17 2.7 1.3
2 -1 -17 20.9 2.8
2 -1 -17 19.5 2.7
-2 1 17 19.5 2.5
-2 1 17 19.1 2.8
1 -1 -17 -0.7 2.7
1 -1 -17 3.6 1.5
-1 1 17 3.3 1.8
-1 1 17 2.9 1.5
0 -1 -17 -1.7 1.1
0 1 17 1.4 2.1
0 1 17 0.3 1.2
-1 -1 -17 1.3 1.1
1 1 17 -0.4 1.7
1 1 17 0.8 1.1
-2 -1 -17 0.9 0.8
2 1 17 2.1 0.8
-4 2 17 27 2.1
3 -2 -17 0.7 1.1
3 -2 -17 2.2 1.2
-3 2 17 1.2 1.1
2 -2 -17 2.1 1.5
2 -2 -17 1.5 1.3
-2 2 17 2.6 1.5
-2 2 17 3.1 1.7
1 -2 -17 166.98 7.7
1 -2 -17 193.88 8.7
-1 2 17 204.78 9.4
-1 2 17 187.18 8
0 -2 -17 22.2 3
0 -2 -17 22.1 3
0 2 17 23.1 2.8
0 2 17 22.5 2.5
-1 -2 -17 71.89 4
1 2 17 70.39 3.6
1 2 17 68.59 4.2
-2 -2 -17 15.9 1.5
3 -3 -17 -0.2 1.4
-3 3 17 3.2 1
2 -3 -17 0.4 1.4
2 -3 -17 0.6 1.1
-2 3 17 0.6 0.9
1 -3 -17 60.49 3.6
1 -3 -17 63.69 4
-1 3 17 64.09 3.8
0 -3 -17 386.06 14.3
0 -3 -17 364.46 13.4
0 3 17 422.86 14.3
-1 -3 -17 136.99 5.7
1 3 17 130.49 5.5
3 -4 -17 2.9 0.9
-3 4 17 3.2 0.8
2 -4 -17 0.3 0.8
-2 4 17 0.2 0.7
1 -4 -17 82.69 3.9
-1 4 17 100.19 4.7
0 4 17 25 1.8
1 6 -18 94.79 4.1
0 6 -18 -1.5 0.9
-1 6 -18 11.7 1.8
-1 6 -18 14.1 1.7
-2 6 -18 17.3 1.9
2 5 -18 78.69 3.5
-2 -5 18 77.19 3.7
1 5 -18 21 2.1
-1 -5 18 16.9 2.4
0 5 -18 1.7 1.6
0 5 -18 1.4 1.2
0 -5 18 0.6 1.2
-1 5 -18 0.9 1
-1 5 -18 0.4 1.3
1 -5 18 -2 1.3
-2 5 -18 6 1.4
-3 5 -18 9.5 1.6
2 4 -18 42.9 2.8
2 4 -18 42.3 2
-2 -4 18 46.1 3.1
1 4 -18 1.7 1.3
-1 -4 18 2.8 1.2
0 4 -18 31.2 3.5
0 4 -18 34.3 4.2
0 -4 18 29.5 3
-1 4 -18 41.1 3.4
-1 4 -18 37 3.5
1 -4 18 39.5 3.2
-2 4 -18 25.5 2.9
-2 4 -18 26.1 2.8
2 -4 18 28.3 2.7
3 3 -18 5.6 0.8
-3 -3 18 6.2 1.2
2 3 -18 19.9 2.5
-2 -3 18 23.8 2.5
1 3 -18 42.3 3.4
1 3 -18 37.2 3.4
-1 -3 18 38.2 3.3
0 3 -18 65.29 4.5
0 3 -18 63.39 3.7
0 3 -18 71.29 4.7
0 -3 18 61.19 4.4
-1 3 -18 1.2 1.7
-1 3 -18 0.3 1.4
-1 3 -18 1.2 1
1 -3 18 2.5 1.8
-2 3 -18 1.3 1.8
-2 3 -18 1 1.6
2 -3 18 0 1
3 -3 18 0.8 0.8
3 2 -18 34 3
-3 -2 18 40.9 2.7
2 2 -18 8.6 1.7
2 2 -18 7.8 1.7
-2 -2 18 3.6 1.6
1 2 -18 3.5 1.3
-1 -2 18 5.6 1.5
0 2 -18 28.4 2.7
0 2 -18 25.2 3.5
0 -2 18 30.6 3.1
-1 2 -18 5.9 1.8
-1 2 -18 9.2 1.5
1 -2 18 9 1.7
-2 2 -18 1.7 0.8
2 -2 18 -0.1 0.9
3 -2 18 2.2 0.8
3 1 -18 0.4 0.9
3 1 -18 -0.8 1.2
-3 -1 18 1.4 1
-3 -1 18 -0.7 1.5
2 1 -18 19.9 2.4
-2 -1 18 19.5 2.6
-2 -1 18 11 3.1
1 1 -18 131.19 6.5
-1 -1 18 128.59 6.6
0 1 -18 20.3 2.4
0 -1 18 20.7 2.6
-1 1 -18 7.3 1.4
1 -1 18 7.4 1.6
-2 1 -18 4.9 1
2 -1 18 5.3 1.1
3 0 -18 -0.7 1.2
3 0 -18 -0.2 0.9
-3 0 18 -0.8 1
-3 0 18 -0.4 1.1
2 0 -18 5.3 1.9
-2 0 18 6.1 1.7
-2 0 18 4.9 1.7
1 0 -18 0 1.2
-1 0 18 1.5 2
-1 0 18 0 1.1
0 0 -18 3.7 1.3
0 0 18 4.5 1.4
0 0 18 7 2.4
-1 0 -18 1.4 1
1 0 18 2.3 1.1
-2 0 -18 1.9 0.8
2 0 18 2.3 0.8
3 -1 -18 2.4 1
-3 1 18 4.4 1.2
2 -1 -18 53.19 3.7
-2 1 18 53.69 3.8
-2 1 18 52.79 3.3
1 -1 -18 25.8 3.1
-1 1 18 23.2 2.5
-1 1 18 21.7 2.9
0 -1 -18 8.2 1.5
0 1 18 9.6 1.6
0 1 18 7.5 1.7
-1 -1 -18 3.3 1.1
1 1 18 2.8 1.7
1 1 18 3.7 1.1
-2 -1 -18 16.7 1.4
2 1 18 14.2 1.6
3 -2 -18 -0.3 0.9
-3 2 18 1.5 0.9
2 -2 -18 8.1 1.4
2 -2 -18 8.1 1.5
-2 2 18 10.7 1.7
1 -2 -18 0.9 1
-1 2 18 1.5 1.1
-1 2 18 0 1.3
0 -2 -18 6.7 1.3
0 2 18 6 1.2
0 2 18 7.3 1.4
-1 -2 -18 0.6 0.7
1 2 18 1.1 1.2
-3 3 18 12.2 1.3
2 -3 -18 7 1.5
-2 3 18 8.4 1.4
1 -3 -18 22 2.2
-1 3 18 22.6 2.1
0 -3 -18 0.5 0.9
0 3 18 0.8 0.8
1 5 -19 0.8 0.8
-1 -5 19 1.2 1.1
0 5 -19 1.9 1.1
0 -5 19 2.8 1.1
-1 5 -19 1 1.3
-1 5 -19 1.8 1
-2 5 -19 1.1 0.8
2 4 -19 12.8 1.6
-2 -4 19 16.4 1.6
1 4 -19 22.7 2.3
-1 -4 19 24.3 2.2
0 4 -19 5 1.4
0 -4 19 6.4 1.3
-1 4 -19 7.2 1.5
-1 4 -19 6.6 1.4
1 -4 19 9.3 1.7
-2 4 -19 43.6 3.1
2 -4 19 46.1 2.8
2 3 -19 17.4 1.4
2 3 -19 16.1 1.8
-2 -3 19 18.9 1.9
1 3 -19 32.1 2.1
1 3 -19 36.2 2.9
-1 -3 19 34.5 2.9
0 3 -19 25 1.9
0 3 -19 27.3 2.7
0 -3 19 27.7 2.7
-1 3 -19 4.5 1.7
-1 3 -19 6.6 1.5
1 -3 19 6.3 1.4
2 -3 19 32.5 2.3
3 2 -19 0 0.7
-3 -2 19 0.2 0.7
2 2 -19 3.4 1.2
2 2 -19 3.2 0.9
-2 -2 19 2.7 1
1 2 -19 5.7 1.4
1 2 -19 3.3 1.1
-1 -2 19 2.6 1.2
0 2 -19 28.6 2.9
0 2 -19 28.3 2.4
0 -2 19 33 2.8
-1 2 -19 0.8 1.2
-1 2 -19 2.2 0.8
1 -2 19 2.6 1.1
2 -2 19 0 0.8
-3 -1 19 -0.1 0.7
2 1 -19 10.9 1.7
2 1 -19 9.6 1.5
-2 -1 19 11.6 1.6
1 1 -19 25.8 2.4
-1 -1 19 28 2.7
0 1 -19 10 1.5
0 -1 19 9.6 1.6
-1 1 -19 1.4 0.8
-1 1 -19 0.5 1.3
1 -1 19 -0.6 0.8
2 -1 19 6.1 1
3 0 -19 3.3 0.9
2 0 -19 14.4 1.8
-2 0 19 11.5 1.5
1 0 -19 63.89 3.8
-1 0 19 65.09 4.2
-1 0 19 63.89 3.8
0 0 -19 3.4 1.1
0 0 19 2 1
-1 0 -19 0.9 0.8
1 0 19 0.3 0.8
3 -1 -19 17.2 1.6
-3 1 19 16.3 1.7
2 -1 -19 71.19 3.8
-2 1 19 49.8 3
-2 1 19 57.99 3.4
1 -1 -19 18.9 2.1
-1 1 19 14.4 1.9
-1 1 19 18.2 2.3
0 -1 -19 1.5 0.8
0 1 19 0.5 1.1
0 1 19 3.5 1.9
-1 -1 -19 6.6 1
1 1 19 5.8 1.1
2 -2 -19 -1 0.9
-2 2 19 -0.1 0.9
1 -2 -19 13.4 1.6
-1 2 19 13.9 1.7
0 -2 -19 20.8 1.8
1 4 -20 45.2 2.6
-1 -4 20 47.5 2.7
0 4 -20 2 0.8
0 -4 20 1.2 0.8
1 -4 20 2 1.4
1 3 -20 53.39 3.1
-1 -3 20 52.79 3
0 3 -20 14.3 2
0 -3 20 20.8 2.2
1 -3 20 -1.3 0.8
2 2 -20 8.3 1.2
-2 -2 20 12 1.4
1 2 -20 26.9 2.3
1 2 -20 26.9 2
-1 -2 20 30.3 2.3
0 2 -20 8.5 1.2
0 2 -20 7.6 1.6
0 -2 20 9.5 1.4
-1 2 -20 3.4 1.3
1 -2 20 7.7 1.2
2 1 -20 1.5 0.7
2 1 -20 2.1 0.9
-2 -1 20 1.9 0.8
1 1 -20 0.8 0.9
1 1 -20 2.6 1
-1 -1 20 1 1
0 1 -20 -0.2 0.8
0 -1 20 0.8 0.8
-1 1 -20 1.8 0.8
1 -1 20 0.5 0.8
2 0 -20 0.9 0.8
2 0 -20 1.1 0.7
1 0 -20 3.5 1.1
-1 0 20 2.8 0.9
0 0 -20 2.1 0.8
0 0 20 2.4 0.8
1 -1 -20 4.2 0.9
