#------------------------------------------------------------------------------
#$Date: 2025-03-04 20:21:18 +0200 (Tue, 04 Mar 2025) $
#$Revision: 298016 $
#$URL: file:///home/coder/svn-repositories/cod/cif/7/13/40/7134071.cif $
#------------------------------------------------------------------------------
#
# This file is available in the Crystallography Open Database (COD),
# http://www.crystallography.net/
#
# All data on this site have been placed in the public domain by the
# contributors.
#
data_7134071
loop_
_publ_author_name
'L&#xf3;pez-Aguilar, Marcos'
'R&#xed;os-Lombard&#xed;a, Nicol&#xe1;s'
'Gallegos, Miguel'
'Barrena-Esp&#xe9;s, Daniel'
'Garc&#xed;a-&#xc1;lvarez, Joaqu&#xed;n'
'Concell&#xf3;n, Carmen'
'Del Amo, Vicente'
_publ_section_title
;
 Organocatalytic CS<sub>2</sub> insertion into epoxides in neat
 conditions: a straightforward approach for the efficient synthesis of Di-
 and tri-thiocarbonates.
;
_journal_issue                   17
_journal_name_full               'Chemical communications (Cambridge, England)'
_journal_page_first              3488
_journal_page_last               3491
_journal_paper_doi               10.1039/d4cc05154h
_journal_volume                  61
_journal_year                    2025
_chemical_formula_sum            'C14 H20 O2 S6'
_chemical_formula_weight         412.66
_chemical_name_systematic
trans,cis-4-Hydroxyhexahydrobenzo[d][1,3]dithiolane-2-thione
_space_group_crystal_system      triclinic
_space_group_IT_number           2
_space_group_name_Hall           '-P 1'
_space_group_name_H-M_alt        'P -1'
_atom_sites_solution_hydrogens   geom
_audit_creation_method           SHELXL-2014
_audit_update_record
;
2024-09-25 deposited with the CCDC.	2024-12-20 downloaded from the CCDC.
;
_cell_angle_alpha                103.921(6)
_cell_angle_beta                 97.793(5)
_cell_angle_gamma                98.661(5)
_cell_formula_units_Z            2
_cell_length_a                   7.5479(4)
_cell_length_b                   11.0961(8)
_cell_length_c                   12.0292(8)
_cell_measurement_reflns_used    3621
_cell_measurement_temperature    298(2)
_cell_measurement_theta_max      69.3230
_cell_measurement_theta_min      3.8140
_cell_volume                     951.11(11)
_computing_cell_refinement
'CrysAlisPro 1.171.38.46 (Rigaku Oxford Diffraction, 2015)'
_computing_data_collection
'CrysAlisPro 1.171.38.46 (Rigaku Oxford Diffraction, 2015)'
_computing_data_reduction
'CrysAlisPro 1.171.38.46 (Rigaku Oxford Diffraction, 2015)'
_computing_molecular_graphics
'MERCURY (Cambridge Crystallographic Data Centre: Cambridge, UK, 2024)'
_computing_structure_refinement  'SHELXL-2018/3 (Sheldrick, 2018)'
_computing_structure_solution    'SIR-2019 (Giacovazzo, 2015)'
_diffrn_ambient_temperature      298(2)
_diffrn_measured_fraction_theta_full 0.999
_diffrn_measured_fraction_theta_max 0.988
_diffrn_measurement_device_type  'Xcalibur, Onyx, Nova'
_diffrn_radiation_type           CuK\a
_diffrn_radiation_wavelength     1.54184
_diffrn_reflns_av_R_equivalents  0.0357
_diffrn_reflns_av_unetI/netI     0.0352
_diffrn_reflns_Laue_measured_fraction_full 0.999
_diffrn_reflns_Laue_measured_fraction_max 0.988
_diffrn_reflns_limit_h_max       8
_diffrn_reflns_limit_h_min       -9
_diffrn_reflns_limit_k_max       13
_diffrn_reflns_limit_k_min       -11
_diffrn_reflns_limit_l_max       14
_diffrn_reflns_limit_l_min       -14
_diffrn_reflns_number            10237
_diffrn_reflns_point_group_measured_fraction_full 0.999
_diffrn_reflns_point_group_measured_fraction_max 0.988
_diffrn_reflns_theta_full        67.684
_diffrn_reflns_theta_max         69.523
_diffrn_reflns_theta_min         3.848
_exptl_absorpt_coefficient_mu    6.666
_exptl_absorpt_correction_T_max  1.00000
_exptl_absorpt_correction_T_min  0.46723
_exptl_absorpt_correction_type   multi-scan
_exptl_absorpt_process_details
;
CrysAlisPro 1.171.38.46 (Rigaku Oxford Diffraction, 2015)
Empirical absorption correction using spherical harmonics,
 implemented in SCALE3 ABSPACK scaling algorithm.
;
_exptl_crystal_colour            'clear intense yellow'
_exptl_crystal_density_diffrn    1.441
_exptl_crystal_description       prism
_exptl_crystal_F_000             432
_exptl_crystal_recrystallization_method 'Re-crystallisation from solvent'
_exptl_crystal_size_max          0.261
_exptl_crystal_size_mid          0.166
_exptl_crystal_size_min          0.135
_refine_diff_density_max         0.444
_refine_diff_density_min         -0.370
_refine_diff_density_rms         0.051
_refine_ls_extinction_method     none
_refine_ls_goodness_of_fit_ref   1.066
_refine_ls_hydrogen_treatment    constr
_refine_ls_matrix_type           full
_refine_ls_number_parameters     281
_refine_ls_number_reflns         3533
_refine_ls_number_restraints     98
_refine_ls_restrained_S_all      1.053
_refine_ls_R_factor_all          0.0665
_refine_ls_R_factor_gt           0.0531
_refine_ls_shift/su_max          0.000
_refine_ls_shift/su_mean         0.000
_refine_ls_structure_factor_coef Fsqd
_refine_ls_weighting_details
'w=1/[\s^2^(Fo^2^)+(0.0831P)^2^+0.2538P] where P=(Fo^2^+2Fc^2^)/3'
_refine_ls_weighting_scheme      calc
_refine_ls_wR_factor_gt          0.1470
_refine_ls_wR_factor_ref         0.1629
_reflns_Friedel_coverage         0.000
_reflns_number_gt                2668
_reflns_number_total             3533
_reflns_threshold_expression     'I > 2\s(I)'
_cod_data_source_file            d4cc05154h3.cif
_cod_data_source_block           2f
_cod_depositor_comments
'Adding full bibliography for 7134071--7134073.cif.'
_cod_original_cell_volume        951.10(11)
_cod_database_code               7134071
_shelx_space_group_comment
;
The symmetry employed for this shelxl refinement is uniquely defined
by the following loop, which should always be used as a source of
symmetry information in preference to the above space-group names.
They are only intended as comments.
;
_shelxl_version_number           2014-3
_shelx_res_file
;
TITL SIR2019 run in space group P -1
CELL  1.54184   7.5479  11.0961  12.0292  103.921   97.793   98.661
ZERR     2.00   0.0004   0.0008   0.0008    0.006    0.005    0.005
LATT   1
SFAC  C    H    O    S
UNIT  28 40 4 12
MERG   2
DFIX     1.500   0.020 C9 C10 C10 C11 C11 C12 C12 C13 C13 C14 C14 C9
DFIX     1.500   0.020 C9A C10A C10A C11A C11A C12A C12A C13A C13A C14A C14A C9A
DFIX     1.40   0.020 C10 O2 C10A O2A
SIMU     0.040   0.080   1.700 C9 C10 C11 C12 C13 C14
SIMU     0.040   0.080   1.700 C9A C10A C11A C12A C13A C14A
SIMU     0.040   0.080   1.700 S6 S6A
SIMU  0.040 0.080 1.700 S4 S4A
FMAP   2
PLAN   25
ACTA
BOND   $H
CONF
L.S.  32
TEMP    25.00
WGHT    0.083100    0.253800
FVAR       8.76521   0.53619
C1    1   -0.004019    0.797032    1.444019    11.00000    0.08010    0.08461 =
         0.07149    0.01487    0.00149    0.03024
C2    1   -0.314583    0.843288    1.349338    11.00000    0.06649    0.09132 =
         0.07827    0.03480    0.01661    0.02919
AFIX  13
H2A   2   -0.304921    0.928262    1.400433    11.00000   -1.20000
AFIX   0
C3    1   -0.509086    0.800082    1.285771    11.00000    0.06063    0.12673 =
         0.10736    0.05771    0.01719    0.02841
AFIX  23
H3A   2   -0.524207    0.715528    1.234833    11.00000   -1.20000
H3B   2   -0.590338    0.797422    1.341443    11.00000   -1.20000
AFIX   0
C4    1   -0.556644    0.889576    1.215141    11.00000    0.07358    0.15405 =
         0.11650    0.07000    0.01949    0.05274
AFIX  23
H4A   2   -0.676603    0.855532    1.167748    11.00000   -1.20000
H4B   2   -0.561797    0.969959    1.267535    11.00000   -1.20000
AFIX   0
C5    1   -0.422594    0.911388    1.137671    11.00000    0.08032    0.12902 =
         0.09343    0.05851    0.01492    0.04298
AFIX  23
H5A   2   -0.450635    0.978508    1.103405    11.00000   -1.20000
H5B   2   -0.437347    0.835199    1.074749    11.00000   -1.20000
AFIX   0
C6    1   -0.225462    0.946488    1.198758    11.00000    0.08048    0.09980 =
         0.08381    0.04411    0.02167    0.02996
AFIX  13
H6    2   -0.206543    1.030430    1.253451    11.00000   -1.20000
AFIX   0
C7    1   -0.185483    0.853330    1.266659    11.00000    0.06224    0.08518 =
         0.07228    0.02846    0.01053    0.02315
AFIX  13
H7    2   -0.204256    0.770218    1.210639    11.00000   -1.20000
AFIX   0
C8    1    0.130999    0.576130    0.883799    11.00000    0.07359    0.09571 =
         0.08298    0.03072    0.01420    0.03377
PART  1
C9    1   -0.119735    0.697579    0.826663    21.00000    0.06166    0.06658 =
         0.08385    0.00749   -0.00279    0.01473
AFIX  13
H9    2   -0.058900    0.733026    0.771464    21.00000   -1.20000
AFIX   0
C10   1   -0.278278    0.762230    0.844151    21.00000    0.06215    0.07205 =
         0.06434    0.01762    0.00608    0.01457
AFIX  13
H10   2   -0.343041    0.726191    0.897501    21.00000   -1.20000
AFIX   0
C11   1   -0.412114    0.739941    0.731833    21.00000    0.07192    0.07754 =
         0.08275    0.02226   -0.00052    0.03085
AFIX  23
H11A  2   -0.519450    0.773371    0.749942    21.00000   -1.20000
H11B  2   -0.356986    0.786636    0.682653    21.00000   -1.20000
AFIX   0
C12   1   -0.470105    0.602826    0.664879    21.00000    0.08292    0.08373 =
         0.09127   -0.00955   -0.04055    0.00776
AFIX  23
H12A  2   -0.551418    0.560556    0.705533    21.00000   -1.20000
H12B  2   -0.538333    0.597896    0.589022    21.00000   -1.20000
AFIX   0
C13   1   -0.315792    0.533026    0.648038    21.00000    0.09371    0.07438 =
         0.06931    0.00811   -0.01042    0.02639
AFIX  23
H13A  2   -0.247423    0.561123    0.593229    21.00000   -1.20000
H13B  2   -0.361890    0.442763    0.618395    21.00000   -1.20000
AFIX   0
C14   1   -0.196832    0.562173    0.765677    21.00000    0.07284    0.08178 =
         0.06628    0.01494    0.01101    0.03414
AFIX  13
H14   2   -0.270901    0.528623    0.816285    21.00000   -1.20000
AFIX   0
O2    3   -0.214429    0.892278    0.898542    21.00000    0.06699    0.06279 =
         0.07660    0.01783   -0.00223    0.01728
AFIX  83
H2    2   -0.102778    0.907565    0.909518    21.00000   -1.50000
AFIX   0
S4    4    0.049185    0.710566    0.945545    21.00000    0.06908    0.08297 =
         0.08345    0.01368   -0.01128    0.02431
S6    4    0.002453    0.478833    0.759444    21.00000    0.10255    0.08517 =
         0.09361    0.01226   -0.00110    0.04729
PART  2
C9A   1   -0.146652    0.685264    0.826526   -21.00000    0.05478    0.06747 =
         0.06479    0.02501   -0.00498    0.00870
AFIX  13
H9A   2   -0.206897    0.669972    0.890410   -21.00000   -1.20000
AFIX   0
C10A  1   -0.228834    0.787565    0.789568   -21.00000    0.06138    0.06491 =
         0.05901    0.01483   -0.00130    0.01082
AFIX  13
H10A  2   -0.178609    0.800316    0.721386   -21.00000   -1.20000
AFIX   0
C11A  1   -0.431320    0.737799    0.749449   -21.00000    0.06629    0.09350 =
         0.08790    0.02473   -0.01512    0.01455
AFIX  23
H11C  2   -0.486756    0.734389    0.817088   -21.00000   -1.20000
H11D  2   -0.483499    0.797090    0.713717   -21.00000   -1.20000
AFIX   0
C12A  1   -0.479785    0.608831    0.664166   -21.00000    0.07200    0.10877 =
         0.08244    0.04558    0.01625    0.02828
AFIX  23
H12C  2   -0.450902    0.615836    0.589542   -21.00000   -1.20000
H12D  2   -0.609924    0.578186    0.653360   -21.00000   -1.20000
AFIX   0
C13A  1   -0.379970    0.514121    0.703849   -21.00000    0.07654    0.07337 =
         0.07543    0.00980   -0.00058    0.00633
AFIX  23
H13C  2   -0.404052    0.437029    0.641013   -21.00000   -1.20000
H13D  2   -0.429296    0.493725    0.768895   -21.00000   -1.20000
AFIX   0
C14A  1   -0.174709    0.557781    0.740670   -21.00000    0.06542    0.07397 =
         0.06019   -0.00687    0.00705    0.01763
AFIX  13
H14A  2   -0.125931    0.570483    0.672010   -21.00000   -1.20000
AFIX   0
S4A   4    0.098556    0.732180    0.890151   -21.00000    0.06192    0.08217 =
         0.08359    0.02131   -0.00443    0.01488
S6A   4   -0.050183    0.461745    0.798677   -21.00000    0.08768    0.07729 =
         0.10172    0.01767    0.01264    0.03110
O2A   3   -0.200283    0.908216    0.871018   -21.00000    0.09396    0.06815 =
         0.06964    0.02142   -0.00905    0.02242
AFIX  83
H2A1  2   -0.138300    0.906802    0.932030   -21.00000   -1.50000
PART  0
AFIX   0
O1    3   -0.104127    0.951068    1.119359    11.00000    0.09585    0.14120 =
         0.10230    0.06583    0.03694    0.02846
AFIX  83
H1    2   -0.125749    1.002709    1.083247    11.00000   -1.50000
AFIX   0
S1    4   -0.233729    0.746693    1.438715    11.00000    0.08051    0.11827 =
         0.09441    0.05833    0.01375    0.02839
S2    4    0.153696    0.760533    1.531037    11.00000    0.10131    0.12690 =
         0.08742    0.02899   -0.01124    0.05056
S3    4    0.043818    0.884536    1.347874    11.00000    0.06037    0.10342 =
         0.08616    0.03224    0.01126    0.02464
S5    4    0.316938    0.542806    0.947401    11.00000    0.08508    0.13695 =
         0.12070    0.04668    0.00570    0.05519
HKLF    4

REM  SIR2019 run in space group P -1
REM R1 =  0.0531 for    2668 Fo > 4sig(Fo)  and  0.0665 for all    3533 data
REM    281 parameters refined using     98 restraints

END

WGHT      0.0828      0.2548

REM Highest difference peak  0.444,  deepest hole -0.370,  1-sigma level  0.051
Q1    1  -0.2244  0.8385  1.4872  11.00000  0.05    0.44
Q2    1   0.1298  0.9124  1.2924  11.00000  0.05    0.32
Q3    1   0.0037  0.8094  1.2916  11.00000  0.05    0.31
Q4    1   0.0983  0.6798  1.4813  11.00000  0.05    0.26
Q5    1  -0.0079  0.8605  1.4171  11.00000  0.05    0.25
Q6    1   0.2440  0.7986  1.4803  11.00000  0.05    0.25
Q7    1  -0.3046  0.7239  1.4975  11.00000  0.05    0.25
Q8    1  -0.1120  0.7997  1.4791  11.00000  0.05    0.24
Q9    1  -0.1637  0.7609  1.3783  11.00000  0.05    0.22
Q10   1   0.0908  0.7313  1.6092  11.00000  0.05    0.20
Q11   1   0.3765  0.6181  1.0057  11.00000  0.05    0.20
Q12   1   0.2286  0.5225  1.0038  11.00000  0.05    0.20
Q13   1  -0.0957  0.9987  1.1422  11.00000  0.05    0.20
Q14   1   0.0531  0.5121  0.8355  11.00000  0.05    0.19
Q15   1   0.0793  0.6003  0.9027  11.00000  0.05    0.19
Q16   1  -0.2496  0.8474  1.3040  11.00000  0.05    0.18
Q17   1  -0.0383  0.6791  1.0128  11.00000  0.05    0.18
Q18   1   0.1038  0.9999  1.4156  11.00000  0.05    0.17
Q19   1   0.3502  0.5629  0.8816  11.00000  0.05    0.16
Q20   1  -0.2703  0.8680  1.1372  11.00000  0.05    0.16
Q21   1  -0.1554  0.9329  1.3213  11.00000  0.05    0.16
Q22   1   0.1457  0.6859  0.9132  11.00000  0.05    0.15
Q23   1  -0.0248  1.0574  1.1784  11.00000  0.05    0.15
Q24   1   0.0863  0.5063  0.6906  11.00000  0.05    0.14
Q25   1   0.2515  0.8382  1.5866  11.00000  0.05    0.14
;
_shelx_res_checksum              62190
_shelx_hkl_file
;
   0   0   1 7229.21 519.478   1
   0   0   1 5924.89 360.955   3
   0   0   2 82233.6 1914.67   3
   0   0   3 56098.2 1935.22   3
   0   0   4 3736.73 597.950   3
   0   0   5 30242.4 1841.45   3
   0   0   6 7433.81 999.302   3
   0   0   6 7532.54 1458.44   2
   0   0   7 7876.41 1111.28   3
   0   0  -7 6913.78 392.742  12
   0   0   7 8462.12 1618.36   2
   0   0   7 9960.63 468.990   6
   0   0  -8 756.385 164.591  12
   0   0   8 1179.63 174.776   9
   0   0   8 902.571 146.256   5
   0   0   8 1102.52 185.561   6
   0   0   9 12980.6 563.480   5
   0   0   9 11060.0 2096.37   2
   0   0   9 13549.1 641.940   6
   0   0   9 14058.5 605.034   9
   0   0  -9 11939.4 586.406  12
   0   0 -10 15511.2 707.030  12
   0   0  10 14913.9 606.961   5
   0   0  10 16523.4 730.733   6
   0   0 -11 466.506 161.640  12
   0   0  11 864.096 181.062   6
   0   0  12 888.246 167.093   6
   0   0  13 946.479 165.735  10
   0   0  13 944.143 150.907   6
   0  -1  14 18.7639 43.8671  10
   0   1 -13 270.576 97.0831  12
   0  -1  13 384.760 113.383   6
   0   1 -12 4055.62 362.271  12
   0  -1  12 4465.15 350.629   6
   0   1 -11 9047.87 543.124  12
   0  -1  11 9290.83 467.448   5
   0   1 -10 1958.86 266.482  12
   0  -1  10 1720.65 793.496   2
   0  -1  10 2470.01 246.604   5
   0  -1  10 2676.62 287.903   6
   0   1  -9 10232.8 553.242  12
   0  -1   9 11371.4 570.145   6
   0   1  -9 11978.6 627.017   4
   0  -1   9 11978.3 558.447   9
   0  -1   9 11206.8 515.918   5
   0  -1   8 4910.65 326.936   5
   0  -1   8 4236.54 1258.30   2
   0   1  -8 4997.64 369.950   4
   0  -1   8 3587.54 849.220   3
   0  -1   8 4442.43 340.030   9
   0   1  -8 4643.88 354.170  12
   0  -1   8 4735.64 348.685   6
   0  -1   7 5949.57 1007.57   3
   0  -1   7 6693.16 427.337   7
   0   1  -7 6111.38 390.074  12
   0  -1   6 11797.9 1310.49   3
   0  -1   5 1101.28 405.553   3
   0  -1   4 32261.7 2192.10   1
   0  -1   3 1000.38 326.603   1
   0  -1   2 354023. 4706.96   1
   0  -1   1 78675.2 1635.11   1
   0   1   0 1924.21 200.138   2
   0  -1   0 1750.34 201.792   1
   0   1   1 21852.5 804.264   3
   0   1   1 21710.3 885.257   2
   0   1   2 442655. 4551.28   3
   0   1   2 471728. 5706.79   2
   0   1   3 59935.0 2056.84   3
   0   1   3 69167.3 2872.79   2
   0   1   4 158353. 3888.27   3
   0   1   4 182426. 5470.29   2
   0   1   5 29622.0 2443.28   2
   0   1   5 29237.3 1872.12   3
   0   1   6 16984.7 2070.53   2
   0   1   6 18054.5 1598.68   3
   0   1   7 1977.54 207.364   5
   0   1   7 2003.16 792.343   2
   0   1   7 1916.54 207.227   9
   0   1   7 2092.89 236.717   6
   0   1   8 4018.76 329.090   9
   0   1   8 4352.74 1263.05   2
   0   1   8 3564.72 289.074   5
   0   1   8 3826.31 336.890   6
   0  -1  -8 3559.29 301.591  12
   0   1   9 144.709 81.8250   9
   0  -1  -9 139.469 107.650  12
   0   1   9-184.282 299.322   2
   0   1   9 198.023 93.7945   5
   0   1   9 191.784 126.356   6
   0   1  10 3502.35 348.981   6
   0   1  11 241.119 126.086   6
   0   1  12 1204.26 187.912   6
   0   1  12 1481.80 218.520  10
   0   1  13 776.642 128.642   6
   0   1  13 1069.22 155.055  10
   0  -2  14 668.680 114.901  10
   0   2 -13 133.685 102.458  12
   0  -2  13 30.5609 61.7507   6
   0  -2  12 533.272 131.182   6
   0   2 -12 500.979 162.869  12
   0  -2  11 264.843 100.767   5
   0  -2  11 175.866 90.3713   6
   0   2 -11 161.718 135.378  12
   0   2 -10 1047.44 196.686   4
   0  -2  10 1224.64 198.994   6
   0  -2  10 1112.33 172.290   5
   0   2 -10 1095.93 191.744  12
   0   2  -9 9153.97 514.076   4
   0  -2   9 9561.31 504.050   9
   0  -2   9 8327.18 474.641   6
   0   2  -9 8456.16 508.833  12
   0  -2   9 8478.85 1887.38   2
   0  -2   9 8648.58 452.987   5
   0   2  -8 27399.6 853.132  12
   0  -2   8 26416.6 788.151   5
   0  -2   8 25344.7 2307.31   3
   0   2  -8 28988.4 847.601   4
   0   2  -7 60480.1 1137.79   4
   0  -2   7 57834.1 3383.64   3
   0   2  -7 60405.1 1195.32  12
   0  -2   7 60605.3 1241.19   7
   0  -2   6 7092.76 1373.30   1
   0  -2   6 5084.94 916.199   3
   0  -2   5 58118.0 3277.66   1
   0  -2   4 203272. 5205.02   1
   0  -2   3 7691.81 876.722   1
   0  -2   2 115571. 2813.10   1
   0  -2   1 34008.4 1342.13   1
   0   2   0 33450.6 1189.31   2
   0  -2   0 31952.3 1253.42   1
   0   2   2 304228. 4748.42   2
   0   2   2 291737. 4302.59   3
   0   2   3 98774.0 2873.44   3
   0   2   3 102623. 3484.69   2
   0   2   4 16185.3 1304.24   3
   0   2   4 15859.8 1571.15   2
   0   2   5 149.680 242.183   2
   0   2   5 348.533 231.451   3
   0   2   6 4282.12 324.264   6
   0   2   6 4197.72 813.507   3
   0   2   6 3763.88 966.884   2
   0   2   7 2055.21 231.156   9
   0   2   7 1858.92 822.818   2
   0   2   7 1989.87 216.404   5
   0   2   7 2086.62 253.157   6
   0   2   8 1015.00 177.577   9
   0   2   8 1050.15 654.022   2
   0   2   8 1272.58 184.667   5
   0   2   8 1173.97 217.812   6
   0   2   9 1733.04 265.402   6
   0   2   9 1715.14 233.326   9
   0   2  10 846.438 192.835  10
   0   2  10 694.761 181.021   6
   0   2  11 6112.68 460.584  10
   0   2  11 6419.81 446.644   6
   0   2  12 696.385 141.179   6
   0   2  12 930.308 163.673  10
   0   2  13 136.700 64.8070  10
   0   2  13 77.6241 61.7954   6
   0   3 -14 359.635 107.831  12
   0  -3  13 57.1131 53.3393   6
   0   3 -13 172.024 82.6516  12
   0  -3  12 655.522 126.467   5
   0   3 -12 909.933 199.213  12
   0  -3  12 779.788 148.102   6
   0   3 -11 4612.95 408.253   4
   0  -3  11 5436.97 394.411   6
   0  -3  11 4878.92 353.120   5
   0   3 -11 5186.23 438.314  12
   0   3 -10 16458.1 756.745   4
   0  -3  10 18291.3 704.164   6
   0   3 -10 17819.6 805.759  12
   0  -3  10 17353.2 670.171   5
   0   3  -9 16269.2 701.132   4
   0  -3   9 17228.1 658.439   5
   0   3  -9 17676.9 760.214  12
   0  -3   8 13931.3 1810.97   3
   0   3  -8 13622.1 621.199  12
   0   3  -8 13405.1 590.537   4
   0  -3   7 6355.06 1123.17   3
   0   3  -7 5804.43 386.172  12
   0   3  -7 5722.28 363.868   4
   0  -3   7 5752.99 411.640   7
   0  -3   7 7179.20 1509.57   1
   0  -3   6 7315.38 1304.24   1
   0  -3   5 44010.5 2761.89   1
   0  -3   4 4622.66 782.166   1
   0  -3   3-156.900 166.620   1
   0  -3   2 519.713 292.237   1
   0  -3   1 16079.0 1106.65   1
   0  -3   0 341640. 5174.67   1
   0   3   0 342190. 4802.06   2
   0   3   1 229168. 4033.62   2
   0   3   2 127817. 3308.00   2
   0   3   2 130941. 3600.13   3
   0   3   3 77381.2 2930.25   3
   0   3   3 81121.7 3063.52   2
   0   3   4 35192.4 2350.06   2
   0   3   4 32911.1 2073.15   3
   0   3   5 7166.70 402.951   6
   0   3   5 5584.19 900.704   3
   0   3   5 6464.16 1150.23   2
   0   3   6 4314.74 341.931   6
   0   3   6 4145.21 341.406   9
   0   3   6 4114.16 357.946  16
   0   3   6 4206.49 303.164   5
   0   3   6 4552.48 1032.89   2
   0   3   7 7801.90 439.923   5
   0   3   7 7711.72 495.957   6
   0   3   7 7107.12 474.101  16
   0   3   7 7875.55 476.082   9
   0   3   8 7190.23 471.953   9
   0   3   8 8066.91 538.584  10
   0   3   8 7438.42 512.716   6
   0   3   9 140.104 117.019   6
   0   3   9 158.658 112.293  10
   0   3   9 72.8333 78.6164   9
   0   3  10 160.876 101.135   6
   0   3  10 10.4811 78.0110  10
   0   3  11 19.4893 73.9043   6
   0   3  11-24.3408 85.3540  10
   0   3  12 108.748 69.7186   6
   0   3  12 68.9093 58.7500  10
   0   4 -14 107.576 71.0254  12
   0   4 -13 1032.71 190.327  12
   0  -4  12 715.623 134.033   5
   0  -4  12 935.686 150.655   6
   0   4 -12 851.467 186.464  12
   0  -4  11-175.153 88.5753   5
   0  -4  11 33.4806 71.6626   6
   0   4 -11 156.026 139.623  12
   0   4 -11 72.9178 110.750   4
   0   4 -10 4655.83 430.539  12
   0  -4  10 4516.47 358.089   5
   0   4 -10 3857.81 389.149   4
   0  -4  10 3832.63 356.664   6
   0  -4   9 1044.97 425.336   3
   0   4  -9 1472.36 242.948  12
   0   4  -9 1185.69 217.454   4
   0   4  -8 7940.13 482.703   4
   0  -4   8 9542.81 1550.57   3
   0   4  -8 8342.04 504.466  12
   0  -4   8 10335.5 2018.16   1
   0   4  -7 11430.7 550.125  12
   0  -4   7 12132.5 1889.69   1
   0   4  -7 11084.9 527.163   4
   0  -4   6 70201.5 4012.96   1
   0   4  -6 59259.9 1138.39   4
   0  -4   5 3738.94 903.759   1
   0  -4   4 91375.8 3721.82   1
   0  -4   3 252111. 5748.23   1
   0  -4   2 37843.9 2095.66   1
   0  -4   1 6117.05 839.260   1
   0  -4   0 167403. 4349.74   1
   0   4   0 161227. 3989.63   2
   0   4   1 417.486 268.059   2
   0  -4  -1 259.295 214.680   1
   0   4   2 29584.7 1795.04   2
   0   4   3 41722.9 2554.30   3
   0   4   3 42876.2 2346.07   2
   0   4   4 75057.2 3504.08   2
   0   4   4 72479.9 3526.56   3
   0   4   4 77765.0 1287.87  10
   0   4   4 78302.8 1444.37  16
   0   4   4 74521.1 1282.88   6
   0   4   4 74891.9 1312.10   9
   0   4   5 175.439 97.6977  10
   0   4   5 259.040 117.237   9
   0   4   5 220.611 85.2657   5
   0   4   5 423.805 111.546  17
   0   4   5 264.936 108.453   6
   0   4   5 228.783 136.261  16
   0   4   6 11934.3 546.988   5
   0   4   6 12349.7 617.185   6
   0   4   6 12139.3 623.613  10
   0   4   6 12464.3 655.356  16
   0   4   6 11917.9 480.795  17
   0   4   6 11997.1 594.658   9
   0   4   7 1579.58 253.609   6
   0   4   7 1567.97 207.922   9
   0   4   7 1719.09 260.615  10
   0   4   8 4021.95 388.341  10
   0   4   8 4021.07 394.251   6
   0   4   8 3726.12 344.206   9
   0   4   9 86.7418 118.295   6
   0   4   9 67.6867 68.0386   9
   0   4   9 103.603 96.7718  10
   0   4  10 83.8984 99.4135  10
   0   4  10-3.95742 82.1294   6
   0   4  11-0.39213 59.9833  10
   0   4  11 104.915 90.7625   6
   0   4  12 232.032 79.9912   6
   0   4  12 309.002 83.6403  10
   0   5 -14 1227.28 178.357  12
   0  -5  13 2388.33 207.309   5
   0   5 -13 3036.22 309.682  12
   0   5 -12 1809.56 268.848  12
   0   5 -12 1679.61 249.149   4
   0  -5  12 1512.34 191.168   5
   0   5 -11 551.152 164.430   4
   0  -5  11 752.467 150.500   5
   0   5 -11 847.897 207.706  12
   0  -5  11 807.232 141.894   6
   0   5 -10 1701.09 272.425   4
   0   5 -10 1550.61 258.388  12
   0   5  -9 18895.7 830.311  12
   0  -5   9 16408.3 2243.34   3
   0   5  -9 18279.5 802.240   4
   0  -5   8 4210.84 1301.80   1
   0   5  -8 2862.71 318.962  12
   0   5  -8 3814.88 352.785   4
   0   5  -7 23322.6 831.677  12
   0   5  -7 21209.1 780.811   4
   0  -5   6 1993.99 753.870   1
   0   5  -6 1676.66 239.153   4
   0   5  -6 2108.94 266.703  12
   0  -5   5 466.882 369.822   1
   0  -5   4 217543. 6224.68   1
   0  -5   3 2044.40 568.159   1
   0  -5   2 5677.81 933.014   1
   0  -5   1 7659.63 1035.42   1
   0  -5   0 84718.8 3547.03   1
   0  -5  -1 114382. 4343.88   1
   0   5   1 118469. 3898.02   2
   0  -5  -2 6696.00 1107.94   1
   0   5   2 7290.33 997.968   2
   0   5   3 7460.03 412.681  17
   0   5   3 7667.47 1082.82   2
   0   5   3 6856.14 408.407   9
   0  -5  -3 6066.02 1159.36   1
   0   5   3 6473.07 376.029   6
   0   5   3 6840.78 467.732  16
   0   5   3 6811.86 369.724  10
   0   5   4 13862.6 592.097   6
   0   5   4 14345.5 626.005   9
   0   5   4 13502.4 580.660  10
   0   5   4 13349.3 694.217  16
   0   5   4 14049.2 574.327  17
   0   5   4 13384.6 560.897   5
   0   5   5 427.850 133.270  10
   0   5   5 417.554 119.020   5
   0   5   5 458.679 125.851   9
   0   5   5 540.272 126.651  17
   0   5   5 614.126 157.584   6
   0   5   5 306.302 159.389  16
   0   5   6 825.721 162.488  17
   0   5   6 938.046 166.300   5
   0   5   6 982.691 192.797   9
   0   5   6 1027.20 186.935  10
   0   5   6 1055.42 203.635   6
   0   5   7 1731.96 264.984   6
   0   5   7 1657.85 250.074   9
   0   5   7 1806.34 256.632  10
   0   5   8 43.2070 86.6803   9
   0   5   8 25.6970 105.342   6
   0   5   8 7.46189 92.8010  10
   0   5   9 1822.78 263.619   6
   0   5   9 2040.03 241.257   9
   0   5   9 1970.28 262.134  10
   0   5  10 1354.20 202.594   6
   0   5  10 1352.46 198.973  10
   0   5  11 54.8970 57.8894   6
   0   5  11-86.2910 64.3668  10
   0   6 -14-51.6683 63.3812  12
   0   6 -13 592.538 148.460  12
   0  -6  13 324.379 80.4473   5
   0  -6  12 1444.32 187.542   5
   0   6 -12 1625.97 253.411   4
   0   6 -12 1653.30 247.408  12
   0   6 -11 2558.48 326.049  12
   0   6 -11 2232.68 291.328   4
   0  -6  11 1977.22 238.355   5
   0   6 -10 2784.53 333.624  12
   0   6 -10 2956.14 357.587   4
   0   6  -9 6740.03 508.864  12
   0  -6   9 4352.60 1208.16   3
   0   6  -9 7053.50 522.670   4
   0  -6   9 7313.81 1862.92   1
   0   6  -8 10038.2 598.794  12
   0   6  -8 10040.6 593.546   4
   0  -6   8 11287.1 2058.08   1
   0   6  -7 1838.22 288.098  12
   0   6  -7 1800.00 260.533   4
   0  -6   7 1868.19 923.784   1
   0   6  -6 8867.97 499.825   4
   0  -6   6 10372.8 1648.67   1
   0   6  -6 8794.75 514.722  12
   0   6  -5 3174.46 286.250  10
   0   6  -5 2859.24 270.694   4
   0  -6   5 2984.13 864.773   1
   0   6  -5 2528.39 277.318  13
   0   6  -4 1621.57 194.507  10
   0  -6   4 1878.91 683.411   1
   0  -6   3 1782.98 619.354   1
   0  -6   2 184623. 5857.45   1
   0  -6   1 4107.79 858.949   1
   0   6   0 91745.2 1457.90   9
   0  -6   0 92307.3 4177.79   1
   0   6   0 91902.0 1411.06  17
   0   6   1 1484.95 209.151  17
   0   6   1 770.749 138.157  10
   0  -6  -1 1110.18 575.688   1
   0   6   1 775.026 137.672   5
   0   6   1 1067.44 159.852   6
   0   6   1 902.566 168.030   9
   0   6   2 5753.97 412.853  13
   0  -6  -2 5863.73 1183.32   1
   0   6   2 6336.31 408.141  17
   0   6   2 6084.25 362.639   6
   0   6   2 6982.04 1110.79   2
   0   6   2 5888.30 363.839  10
   0   6   2 6139.08 381.698   5
   0   6   2 6746.56 427.588   9
   0   6   3 55142.5 1180.69  10
   0   6   3 55237.4 1214.68  17
   0   6   3 56380.7 1204.63   5
   0   6   3 53776.2 1178.29   6
   0   6   3 56712.0 1281.89   9
   0   6   4 20762.3 764.571  17
   0  -6  -4 20935.7 2535.67   1
   0   6   4 20193.6 770.396  10
   0   6   4 19750.7 756.467   5
   0   6   4 20626.9 772.418   6
   0   6   4 20244.4 807.318   9
   0  -6  -5 10846.0 1939.93   1
   0   6   5 12925.9 612.110  17
   0   6   5 13374.2 666.673  10
   0   6   5 13631.9 674.561   6
   0   6   5 12799.7 638.395   5
   0   6   5 13784.1 687.584   9
   0   6   6 337.820 120.238   9
   0   6   6 238.049 140.974   6
   0   6   6 321.306 118.825  10
   0   6   6 244.277 109.172  17
   0   6   7 369.787 145.279   6
   0   6   7 352.487 129.069  10
   0   6   7 505.276 148.248   9
   0   6   8 1240.66 212.523   6
   0   6   8 1190.04 214.608  10
   0   6   8 1123.57 193.031   9
   0   6   9 1551.86 225.463   6
   0   6   9 1521.96 210.811  10
   0   6  10-45.4572 61.5036  10
   0   6  10 8.05801 71.0006   6
   0  -7  13 4765.01 266.914   5
   0   7 -13 6275.64 384.593  12
   0  -7  12 2311.28 232.676   5
   0   7 -12 2732.35 292.193  12
   0   7 -12 2606.15 294.612   4
   0   7 -11 9128.43 564.824  12
   0   7 -11 9598.43 601.268   4
   0   7 -10 59.1295 120.672  12
   0   7 -10-86.9964 112.960   4
   0  -7   9 820.498 388.014   1
   0   7  -9 925.573 222.568  12
   0   7  -9 992.320 239.121   4
   0  -7   8 2020.26 898.155   1
   0   7  -8 2205.23 295.167  12
   0   7  -8 2485.09 312.695   4
   0   7  -7 1163.77 213.363  12
   0  -7   7 1694.80 886.727   1
   0   7  -7 2031.51 291.802   4
   0   7  -6 4234.60 375.139  12
   0   7  -6 4674.72 394.147  13
   0  -7   6 4357.70 1157.60   1
   0   7  -6 4855.47 406.328   4
   0   7  -5 52.5109 79.4260   4
   0  -7   5-133.662 204.906   1
   0   7  -5 42.8400 80.0599  10
   0   7  -5 79.0093 78.6308  13
   0   7  -4 86.1968 96.5150   4
   0  -7   4-18.3341 211.936   1
   0   7  -4 138.775 122.196   9
   0   7  -4 120.594 71.5144  10
   0   7  -3 33040.3 942.946   9
   0   7  -3 34613.0 880.780  10
   0  -7   2 12378.1 1704.34   1
   0   7  -2 10822.9 481.567  10
   0   7  -2 11099.8 551.542   9
   0   7  -2 10450.6 452.918  17
   0   7  -1 213.082 92.2340  10
   0   7  -1 293.456 121.627   9
   0   7  -1 427.508 110.133   6
   0   7  -1 552.362 142.750  17
   0   7   0 4555.44 316.357   6
   0   7   0 4998.42 371.263  17
   0   7   0 4477.18 315.135  10
   0   7   0 4767.93 435.730  13
   0  -7   0 4409.20 1064.90   1
   0   7   0 4754.09 380.255   9
   0   7   1 15150.8 607.307  10
   0   7   1 16194.8 619.971   6
   0   7   1 17241.2 702.817  17
   0   7   1 16282.4 704.461   9
   0  -7  -1 14363.1 1932.25   1
   0   7   1 15580.1 662.868   5
   0   7   1 16178.0 767.797  13
   0  -7  -2 12436.4 1883.70   1
   0   7   2 10664.6 561.795   5
   0   7   2 11304.9 582.494  17
   0   7   2 10158.7 524.095  10
   0   7   2 11601.1 607.018  13
   0   7   2 11061.1 607.843   9
   0   7   2 10267.6 525.024   6
   0   7   3 429.291 140.714  17
   0   7   3 335.898 104.552   6
   0   7   3 300.577 101.699   5
   0   7   3 321.299 112.198  10
   0   7   3 315.517 111.451   9
   0   7   4 6626.47 494.690   9
   0   7   4 5825.46 454.146   5
   0   7   4 6467.00 460.331  17
   0  -7  -4 5933.37 1451.83   1
   0   7   4 6513.08 457.564   6
   0   7   4 6639.58 463.919  10
   0   7   5-32.0970 88.1877  10
   0   7   5 99.3064 113.319   6
   0   7   5 39.8299 99.0900  17
   0   7   5 103.759 94.1309   9
   0   7   6 2994.36 338.897   9
   0   7   6 3112.06 348.105   6
   0   7   6 3035.76 344.233  10
   0   7   7 2171.70 282.547   6
   0   7   7 1954.34 268.785  10
   0   7   7 1803.68 241.396   9
   0   7   8 315.232 119.164   6
   0   7   8 393.256 122.286  10
   0   7   8 367.062 118.722   9
   0   7   9 45.9007 69.5597   6
   0   7   9 61.9740 58.3769  10
   0  -8  13 24.6898 35.5493   5
   0   8 -13-193.215 74.0596  12
   0   8 -12 192.160 97.3215   4
   0   8 -12 207.008 92.9509  12
   0   8 -12 119.959 72.6325   8
   0  -8  12 217.871 79.4797   5
   0   8 -11 1160.51 216.774   4
   0   8 -11 999.880 188.149  12
   0   8 -10 1865.32 280.492   4
   0   8 -10 1235.53 230.518  12
   0   8  -9 7224.99 555.382   4
   0   8  -9 6402.63 485.162  12
   0   8  -8 384.968 168.805   4
   0  -8   8 689.459 601.934   1
   0   8  -8 230.921 131.336  12
   0   8  -7 64.8713 74.8884  13
   0   8  -7 59.8171 104.177   4
   0  -8   7 500.039 655.926   1
   0   8  -6 638.863 162.732   4
   0  -8   6 1035.33 598.976   1
   0   8  -6 552.166 168.087  13
   0   8  -5 1768.25 262.133   4
   0  -8   5 1822.75 666.406   1
   0   8  -5 1527.39 221.307  10
   0   8  -5 1411.00 268.575  13
   0   8  -4 437.844 129.471  10
   0  -8   4 412.450 509.432   1
   0   8  -4 306.891 111.366   4
   0   8  -4 284.903 136.403  13
   0   8  -3 843.105 145.766  17
   0   8  -3 531.193 138.075  10
   0   8  -3 767.809 232.078  13
   0   8  -3 668.946 183.099   9
   0  -8   3 436.460 232.271   1
   0   8  -2 1102.29 179.696  10
   0   8  -2 1240.13 220.474   9
   0   8  -2 554.989 195.345  13
   0   8  -2 1152.46 166.700  17
   0  -8   2 1240.49 684.542   1
   0  -8   1 4665.72 1116.62   1
   0   8  -1 4990.31 366.247  10
   0   8  -1 5293.36 518.940  13
   0   8  -1 6521.68 418.045  17
   0   8  -1 6337.58 468.707   9
   0   8  -1 5167.60 347.837   6
   0   8   0 5565.11 414.542  17
   0   8   0 5032.80 369.455  10
   0  -8   0 5157.21 1250.04   1
   0   8   0 5160.48 363.063   6
   0   8   0 5167.10 428.044   9
   0   8   0 5616.94 489.829  13
   0   8   1 24938.2 915.492  17
   0   8   1 24133.2 939.159   9
   0  -8  -1 21854.1 2642.83   1
   0   8   1 25101.9 991.028  13
   0   8   1 23210.9 813.088  10
   0   8   1 23691.9 798.972   6
   0   8   2-7.85247 101.952  13
   0   8   2 58.6611 104.818  17
   0  -8  -2 199.479 333.331   1
   0   8   2-24.6503 118.857   9
   0   8   2 69.2426 88.4878   6
   0   8   2 32.6576 91.0684  10
   0   8   3 1296.26 210.981  10
   0   8   3 1287.62 215.869  17
   0   8   3 1282.83 237.930   9
   0   8   3 1401.97 217.073   6
   0   8   4 266.965 109.169  10
   0   8   4 323.775 155.583   9
   0   8   4 401.952 135.435   6
   0   8   4 333.951 139.147  17
   0   8   5 1256.91 221.187   6
   0   8   5 1219.45 221.626  10
   0   8   5 1160.04 225.423   9
   0   8   6 259.334 121.581   9
   0   8   6 467.543 163.100   6
   0   8   6 356.743 136.719  10
   0   8   7-63.7773 84.6957   9
   0   8   7 128.743 97.3751   6
   0   8   7-38.5716 69.7676  10
   0   8   8 196.834 89.4427   6
   0   8   8 299.038 92.9293  10
   0  -9  12 1477.98 158.885   5
   0   9 -12 775.643 135.152   8
   0   9 -12 1795.48 208.874   4
   0   9 -12 990.838 151.631  12
   0   9 -11 1392.94 215.896   4
   0   9 -11 1092.95 173.440  12
   0   9 -10 2981.63 299.175  12
   0   9 -10 3764.57 369.742   4
   0   9  -9 879.989 212.816   4
   0   9  -8 94.7126 110.897   4
   0   9  -7 482.286 163.579  13
   0   9  -7 981.026 218.733   4
   0  -9   6-489.383 748.551   1
   0   9  -6 114.904 99.7420   4
   0   9  -6 116.827 125.463  13
   0   9  -5 54.1450 91.4882  10
   0   9  -5-15.9291 93.4551   4
   0   9  -5 156.403 124.842  13
   0  -9   4 1060.84 725.448   1
   0   9  -4 2075.93 263.360  10
   0   9  -4 1316.89 275.038  13
   0   9  -3-38.2781 127.848  13
   0   9  -3 48.8556 81.0725  10
   0   9  -3-122.872 154.467   9
   0  -9   3-142.631 321.353   1
   0   9  -2 4.98165 123.033   9
   0   9  -2 50.9619 84.0315  10
   0   9  -2 25.8452 115.403  13
   0  -9   2 16.2201 357.937   1
   0   9  -1 7135.56 472.443  17
   0   9  -1 7010.75 542.791   9
   0  -9   1 5602.14 1370.68   1
   0   9  -1 7008.51 576.664  13
   0   9  -1 6668.34 447.508  10
   0   9   0 1182.86 192.842   6
   0   9   0 1043.49 191.649  10
   0   9   0 1084.01 232.712   9
   0  -9   0 1621.17 840.919   1
   0   9   0 1164.75 223.719  17
   0   9   0 911.005 247.145  13
   0  -9  -1 637.612 484.953   1
   0   9   1 1081.35 213.238  17
   0   9   1 962.040 185.443   6
   0   9   1 1296.69 207.062  10
   0   9   1 1202.09 239.289   9
   0   9   1 1003.50 209.406  13
   0   9   2 215.230 126.222  17
   0   9   2 144.615 107.679   6
   0   9   2 245.162 126.545  13
   0   9   2 157.428 136.492   9
   0   9   2 211.805 115.098  10
   0   9   3 908.464 191.679  10
   0   9   3 919.463 185.776   6
   0   9   3 934.093 219.325   9
   0   9   4 289.750 114.845   6
   0   9   4 603.058 178.397   9
   0   9   4 757.375 172.505  10
   0   9   5 197.516 112.556   6
   0   9   5 317.578 125.355   9
   0   9   5 245.491 114.656  10
   0   9   6 1276.63 189.115  10
   0   9   6 1334.56 204.466   6
   0   9   6 1260.94 200.352   9
   0   9   7-66.7812 73.6022   6
   0   9   7 174.056 63.8227  10
   0  10 -11 72.1348 87.0947   4
   0  10 -11-65.7092 49.1905  14
   0  10 -11 37.2937 52.2399   8
   0  10 -10 331.345 118.557   4
   0  10 -10 57.0725 63.5215  14
   0  10  -9 395.702 148.034   4
   0  10  -8 172.496 86.3532  13
   0  10  -8 553.617 188.901   4
   0  10  -7 249.605 134.429   4
   0  10  -7 280.409 118.548  13
   0  10  -6 197.662 129.257  13
   0  10  -6 268.958 127.777   4
   0  10  -5 121.632 150.100  13
   0  10  -5 144.491 97.4991  10
   0  10  -4 11334.9 586.246  10
   0  10  -4 10815.3 744.061  13
   0  10  -3 121.073 92.1442  10
   0  10  -3-29.3381 115.892  13
   0  10  -2-97.3393 149.299   9
   0  10  -2 105.354 84.7832  10
   0  10  -2-130.573 132.623  13
   0  10  -1 190.376 83.3768  14
   0  10  -1 582.609 196.763   9
   0  10  -1 651.335 159.963  10
   0  10  -1 471.402 174.173  13
   0  10   0 360.955 150.400  13
   0  10   0 463.379 193.966   9
   0  10   0 332.746 128.515  10
   0  10   1 103.268 80.9116  10
   0  10   1-30.2923 144.885   9
   0  10   1 117.429 96.4588  13
   0  10   2 307.323 127.312  10
   0  10   2 363.367 160.749   9
   0  10   2 172.010 104.226  13
   0  10   2 348.472 119.915   6
   0  10   3 2443.79 277.972  10
   0  10   3 2415.19 312.694   9
   0  10   3 2645.92 278.725   6
   0  10   4 367.235 116.003   6
   0  10   4 528.878 134.757  10
   0  10   4 536.044 146.775   9
   0  10   5 755.061 155.163   9
   0  10   5 532.431 123.131   6
   0  10   5 619.446 133.531  10
   0  10   6 162.065 78.4176   6
   0  11 -10 95.1386 68.2589   8
   0  11 -10 48.9307 53.7992  14
   0  11 -10-75.3926 74.3345   4
   0  11  -9 446.150 118.315   4
   0  11  -9 119.670 71.0569  14
   0  11  -8 98.0286 72.3255  13
   0  11  -8 268.028 131.599   4
   0  11  -8 194.877 101.179  14
   0  11  -7 54.6969 78.8110  14
   0  11  -7 192.110 113.297  13
   0  11  -6 179.383 124.897  13
   0  11  -5 23.2135 94.9554  13
   0  11  -4 165.851 93.4644  10
   0  11  -4-70.2062 111.011  14
   0  11  -4 2.34786 104.509  13
   0  11  -3 836.820 175.640  14
   0  11  -3 986.287 186.412  10
   0  11  -3 864.275 248.836  13
   0  11  -2 225.186 133.576  13
   0  11  -2 232.568 75.8953  14
   0  11  -2 315.429 113.865  10
   0  11  -1 113.527 94.0891  10
   0  11  -1-164.130 113.043  13
   0  11  -1 128.664 162.077   9
   0  11   0 240.326 121.951  13
   0  11   0 429.669 180.217   9
   0  11   0 350.538 120.536  10
   0  11   1 1503.93 275.314   9
   0  11   1 1395.17 215.622  10
   0  11   1 779.285 159.091  13
   0  11   2 142.470 88.9022  10
   0  11   2-104.260 130.765   9
   0  11   3 274.221 81.4399  10
   0  11   3 526.340 144.734   9
   0  11   4 181.213 98.1326   9
   0  11   4 55.3338 56.9469  18
   0  12  -9 39.0202 49.7991  14
   0  12  -9 85.8330 68.1885   8
   0  12  -8 192.742 70.4134  14
   0  12  -8-38.7697 58.5422   8
   0  12  -7 79.9043 78.7794   8
   0  12  -7-61.5075 79.4077  14
   0  12  -7-9.17273 69.0935  13
   0  12  -6 79.1179 88.7544   8
   0  12  -6 51.6335 72.2517  13
   0  12  -6-51.8016 63.8023  14
   0  12  -5-32.9496 77.3930  13
   0  12  -5-151.020 77.8352  14
   0  12  -4-43.1244 101.954  13
   0  12  -4 110.192 86.7231  14
   0  12  -3 275.804 95.7689  14
   0  12  -3 395.763 144.250  13
   0  12  -3 449.879 133.191  10
   0  12  -2 956.534 200.517  13
   0  12  -2 1155.03 172.406  10
   0  12  -1-94.5423 66.5791  10
   0  12  -1-95.7168 93.5539  13
   0  12  -1-69.5281 75.4024  18
   0  12   0 164.953 93.7120  18
   0  12   0 6.14714 63.1107  13
   0  12   1 175.111 84.3433  18
   0  12   2-8.94120 69.2257  18
   0  13  -6 20.1699 55.9718  13
   0  13  -6 135.032 61.1025  14
   0  13  -5 78.4235 68.0245  13
   0  13  -4-35.5931 64.5179  13
   0  13  -3-22.4037 59.4592  13
   0  13  -2 54.0179 55.8041  13
  -1  13  -1 135.295 66.9850  13
  -1  13  -2 51.8381 76.9681  13
  -1  13  -3-8.60848 73.4254  13
  -1  13  -4 336.942 121.191  13
  -1  13  -4 192.311 74.5708  14
  -1  13  -5 112.285 72.8465  13
  -1  13  -5-77.5101 66.6605  14
  -1  13  -6 111.801 68.5766  14
  -1  13  -6 24.3341 66.8264  13
  -1  13  -7 242.472 79.7140  14
  -1  12   3-102.437 84.6792   9
  -1  12   3-29.6989 60.5380  18
  -1  12   2 137.032 100.959   9
  -1  12   2 84.4781 81.7868  18
  -1  12   1 1109.93 207.039   9
  -1  12   1 671.430 123.553  13
  -1  12   1 772.747 159.215  18
  -1  12   0 563.651 141.991  18
  -1  12   0 505.168 136.017  13
  -1  12  -1 142.256 97.8054  13
  -1  12  -1 122.754 97.8744  18
  -1  12  -2 340.990 142.752  13
  -1  12  -2 128.669 87.4386  18
  -1  12  -3-6.90030 91.9740  13
  -1  12  -3 27.9294 67.1522  14
  -1  12  -4-83.5160 90.9763  13
  -1  12  -4 27.5803 61.6852  14
  -1  12  -5-109.567 77.0959   8
  -1  12  -5-28.8045 74.5170  14
  -1  12  -5 48.5637 95.2334  13
  -1  12  -6 846.329 172.726   8
  -1  12  -6 1009.01 189.158  13
  -1  12  -6 983.198 180.333  14
  -1  12  -7 43.0317 62.8663  13
  -1  12  -7 26.7855 64.3605   8
  -1  12  -7 8.00269 60.7147  14
  -1  12  -8 170.775 94.8170   8
  -1  12  -8 61.7074 67.2085  14
  -1  12  -9-22.3660 48.4010   8
  -1  12  -9 5.98767 50.8948  14
  -1  11   5 35.5996 67.6702   9
  -1  11   4 912.164 181.368   9
  -1  11   4 198.950 96.9648  18
  -1  11   3 910.793 195.002   9
  -1  11   3 514.110 143.004  18
  -1  11   2 623.965 155.775   9
  -1  11   2 598.305 160.234  18
  -1  11   1 4571.30 412.418  18
  -1  11   1 4002.31 397.784   9
  -1  11   0 124.477 155.618   9
  -1  11   0 98.3239 132.452  13
  -1  11   0 187.240 112.071  18
  -1  11  -1 75.1365 81.2213  18
  -1  11  -1 76.8831 105.120  13
  -1  11  -1 75.1088 143.281   9
  -1  11  -2 1011.90 192.248  14
  -1  11  -2 1260.86 246.808   9
  -1  11  -2 1297.90 223.068  18
  -1  11  -2 1053.11 247.389  13
  -1  11  -3 118.382 106.612  13
  -1  11  -3 7.14213 81.3542  14
  -1  11  -4 4.86411 76.0257   8
  -1  11  -4 49.8292 77.7436  14
  -1  11  -4-78.8278 114.273  13
  -1  11  -5 12.0793 98.2944  13
  -1  11  -5-145.890 121.896   8
  -1  11  -5 142.893 106.646  14
  -1  11  -6 320.398 137.901   8
  -1  11  -6 191.608 119.231  13
  -1  11  -6 293.044 133.735  14
  -1  11  -7-48.3093 86.3526  14
  -1  11  -7 146.839 105.702  13
  -1  11  -7-25.5009 93.5426   8
  -1  11  -8 4238.00 392.609   8
  -1  11  -8 5159.59 384.722  14
  -1  11  -9 746.176 164.693   8
  -1  11  -9 555.995 126.827  14
  -1  11 -10 441.805 116.414   8
  -1  11 -10 426.024 99.8045  14
  -1  10   6 4.09162 40.8583   6
  -1  10   6 210.964 97.7937   9
  -1  10   6 150.724 72.3128  18
  -1  10   5 100.002 113.691   9
  -1  10   5 216.578 98.7685   6
  -1  10   5 81.5044 84.7970  18
  -1  10   4-29.8029 86.1979  18
  -1  10   4 226.720 98.4832   6
  -1  10   4 293.160 145.790   9
  -1  10   3 7213.48 440.238   6
  -1  10   3 8042.37 563.027   9
  -1  10   2 160.315 84.0529   6
  -1  10   2 92.4940 130.059   9
  -1  10   2-13.6254 75.3147  13
  -1  10   1 4020.75 340.653  10
  -1  10   1 3505.49 386.796  13
  -1  10   1 4252.51 436.937   9
  -1  10   0 141.572 102.153  10
  -1  10   0-39.4369 128.993   9
  -1  10   0 43.2161 91.8840  13
  -1  10  -1 704.740 147.858  14
  -1  10  -1 650.523 202.155   9
  -1  10  -1 477.631 200.257  13
  -1  10  -1 734.320 163.225  10
  -1  10  -2 777.745 198.962   9
  -1  10  -2 756.945 185.494  14
  -1  10  -2 505.297 209.891  13
  -1  10  -2 808.095 170.563  10
  -1  10  -3 5129.95 461.623  14
  -1  10  -3 6254.70 579.245  13
  -1  10  -3 6461.97 426.836  10
  -1  10  -3 3927.25 393.922   8
  -1  10  -3 6839.33 523.304   9
  -1  10  -3 4195.23 369.536  18
  -1  10  -4 928.210 174.778  10
  -1  10  -4 772.512 196.410  14
  -1  10  -4 835.380 207.899  13
  -1  10  -5 532.980 182.681  13
  -1  10  -5 396.890 158.538  14
  -1  10  -6 81.2609 90.6503  13
  -1  10  -6-41.3469 93.2162  14
  -1  10  -7 4679.35 441.800  14
  -1  10  -7 4379.88 411.751   4
  -1  10  -8-58.7087 98.8192  14
  -1  10  -8 148.794 137.058   4
  -1  10  -9 1075.90 213.110   8
  -1  10  -9 1243.97 207.832   4
  -1  10  -9 761.975 153.657  14
  -1  10 -10 1067.39 191.832   8
  -1  10 -10 529.509 112.233  14
   1 -10  11 139.019 69.8874   5
  -1  10 -11 70.0723 70.5912   8
  -1   9   7 74.4291 83.2997   9
  -1   9   7 158.580 76.5874  18
  -1   9   7 132.947 65.5471   6
  -1   9   6 2220.26 276.734   9
  -1   9   6 2085.85 249.477   6
  -1   9   5 96.9156 77.2989   6
  -1   9   5 266.754 147.965   9
  -1   9   5 207.310 104.184  10
  -1   9   4 153.706 103.888  10
  -1   9   4 256.890 111.635   6
  -1   9   4 231.903 150.295   9
  -1   9   3 46.1816 114.724   9
  -1   9   3 42.1985 84.4552   6
  -1   9   3-95.2964 101.432  10
  -1   9   2 508.443 149.061   6
  -1   9   2 513.877 151.118  10
  -1   9   2 317.161 141.471   9
  -1   9   2 376.695 124.179  13
  -1   9   1 1380.13 192.699   6
  -1   9   1 1500.19 202.928  10
  -1   9   1 1594.46 266.997   9
  -1   9   1 1370.90 270.845  13
  -1   9   0 619.061 141.155  10
  -1   9   0 512.092 122.865  14
  -1   9   0 627.587 196.003   9
  -1   9   0 533.567 193.419  13
  -1   9  -1 89184.6 1770.13   9
  -1   9  -1 89279.6 2057.68  13
  -1   9  -1 87532.0 1522.27  10
  -1   9  -2 10535.2 612.271   9
  -1   9  -2 11045.9 543.465  10
  -1   9  -2 11026.8 749.800  13
  -1   9  -3 11633.6 630.679   9
  -1   9  -3 11012.1 544.985  10
  -1   9  -3 9972.49 724.054  13
  -1   9  -4 275.583 118.789  10
  -1   9  -4 594.032 208.839  13
   1  -9   5 3200.81 1009.78   1
  -1   9  -5 1856.40 299.545  13
  -1   9  -6 241.897 135.640   4
  -1   9  -6 286.908 147.271  13
  -1   9  -7 5026.18 466.695   4
  -1   9  -7 5014.82 396.666  13
  -1   9  -8 122.400 78.3654  14
  -1   9  -8 371.184 170.142   4
  -1   9  -9 5059.60 440.715   4
  -1   9  -9 4180.42 367.059  14
  -1   9 -10 4809.42 417.303   8
  -1   9 -10 3715.99 309.470  14
  -1   9 -11 4693.82 368.177   4
  -1   9 -11 3046.16 304.742   8
   1  -9  11 4522.75 314.838   5
  -1   9 -11 3506.43 294.536  12
  -1   9 -12 31.0658 51.6978   8
   1  -9  12-27.9279 44.5437   5
  -1   8   9 1.45417 50.1874   6
  -1   8   8 472.842 116.594   9
  -1   8   8 570.500 144.297   6
  -1   8   7 515.893 116.010  10
  -1   8   7 630.380 163.606   6
  -1   8   7 480.886 150.561   9
  -1   8   7 278.993 102.612  18
  -1   8   6 65.0964 111.498   9
  -1   8   6-37.5968 80.5972  10
  -1   8   6-84.5073 107.824   6
  -1   8   5 2689.26 301.701  10
  -1   8   5 2889.69 326.834   6
  -1   8   5 3013.56 367.002   9
  -1   8   4 4265.59 385.590   6
  -1   8   4 4884.57 392.010  10
  -1   8   4 4968.93 455.738   9
  -1   8   3 961.631 190.959   6
  -1   8   3 673.681 184.819   9
  -1   8   3 830.119 156.872  10
  -1   8   2 1522.78 243.565   9
  -1   8   2 1347.90 191.661  10
  -1   8   2 1669.25 220.359   6
  -1   8   2 1306.68 227.872  13
  -1   8   1 29546.6 846.748  10
  -1   8   1 29315.0 823.705   6
  -1   8   1 29457.3 991.566   9
  -1   8   1 31659.5 1082.04  13
  -1   8   0 3743.86 283.310   6
  -1   8   0 4051.75 315.184  10
  -1   8   0 4395.56 441.277  13
  -1   8   0 4252.73 350.180  14
  -1   8   0 3955.17 373.361   9
   1  -8   0 4392.96 1015.76   1
  -1   8  -1 665.268 205.438  13
  -1   8  -1 275.661 99.5266  10
   1  -8   1 246.648 204.633   1
  -1   8  -1 530.489 153.121   9
   1  -8   2 98.5119 267.131   1
  -1   8  -2-4.19590 69.8246  10
  -1   8  -2 120.370 102.176   9
  -1   8  -2 22.6486 123.506  13
  -1   8  -3 16326.1 693.439   9
  -1   8  -3 15649.8 862.801  13
  -1   8  -3 17874.7 669.466  10
   1  -8   3 17598.3 2090.33   1
  -1   8  -4 2040.94 263.914   9
  -1   8  -4 1249.96 258.016  13
  -1   8  -4 1783.49 221.809  10
   1  -8   4 1381.91 590.927   1
  -1   8  -5 12221.1 661.594   4
  -1   8  -5 11318.8 644.094  13
  -1   8  -6 696.404 180.355  13
   1  -8   6 1003.45 532.476   1
  -1   8  -6 545.526 181.080   4
  -1   8  -7 121.771 121.917   4
  -1   8  -7 201.240 108.968  13
   1  -8   7 725.831 681.658   1
  -1   8  -8 4781.82 452.107   4
  -1   8  -8 4386.07 413.986  12
  -1   8  -9 100.844 110.396   4
  -1   8  -9 88.9008 87.8879  14
  -1   8 -10 2103.68 233.221  14
  -1   8 -10 3426.47 361.283   4
  -1   8 -10 2934.91 329.252  12
  -1   8 -10 2555.28 322.016   8
  -1   8 -11 513.876 153.697   4
   1  -8  11 417.227 119.790   5
  -1   8 -11 514.832 129.637   8
   1  -8  12 1228.19 158.957   5
  -1   8 -12 1204.80 186.234  12
   1  -8  13 508.169 86.4390   5
  -1   8 -13 356.618 88.9897  12
  -1   7  10-42.0641 62.9071   6
  -1   7   9 152.177 69.1249  10
  -1   7   9 38.2788 75.2559   9
  -1   7   8-29.7253 78.9048   9
  -1   7   8 55.3740 91.5853   6
  -1   7   8 12.1248 76.8139  10
  -1   7   7 925.458 172.321  10
  -1   7   7 1014.04 209.851   6
  -1   7   7 1049.11 197.849   9
  -1   7   6 810.648 196.882   9
  -1   7   6 669.571 166.513   6
  -1   7   6 818.293 183.153  10
  -1   7   5 1457.23 237.133   6
  -1   7   5 1357.97 219.438  10
  -1   7   5 1450.44 256.907   9
  -1   7   4 21095.1 980.746  16
  -1   7   4 21334.3 878.158   9
  -1   7   4 22045.6 806.013  10
  -1   7   4 20536.1 798.445   6
  -1   7   3 36.1535 68.0569  10
  -1   7   3-20.6062 83.4239   6
  -1   7   3 825.564 467.975   2
  -1   7   3 155.605 159.752  16
  -1   7   3 121.982 106.476  17
  -1   7   3 623.384 157.669   9
  -1   7   2 1640.87 200.348   6
  -1   7   2 1832.51 244.203  13
  -1   7   2 2105.83 262.539  17
   1  -7  -2 1952.61 702.843   1
  -1   7   2 1919.10 292.597  16
  -1   7   2 1995.04 219.700  10
  -1   7   2 1467.77 543.750   2
  -1   7   2 1891.71 243.494   9
  -1   7   1 186.702 97.9013   9
  -1   7   1 77.4129 60.3844   6
  -1   7   1 137.579 97.4664  17
  -1   7   1 67.6218 53.7723  10
  -1   7   1 170.444 150.906  16
  -1   7   1-35.4395 100.813  13
  -1   7   0 446.576 100.142  10
  -1   7   0 410.628 147.910  13
  -1   7   0 481.916 123.812  17
   1  -7   0 837.107 443.660   1
  -1   7   0 510.086 126.700   9
  -1   7  -1 232.079 78.0456  10
  -1   7  -1 182.825 91.8940   9
  -1   7  -1 229.119 146.798  13
   1  -7   1-55.0401 245.341   1
  -1   7  -2 55120.9 1454.41  13
  -1   7  -2 55987.5 1154.28   9
  -1   7  -3 4462.01 335.043   9
  -1   7  -3 4112.30 300.591  10
  -1   7  -3 4480.68 434.989  13
   1  -7   3 4875.20 1008.38   1
  -1   7  -4 13774.5 589.678   9
  -1   7  -4 13737.0 556.181  10
  -1   7  -4 15027.3 697.024  13
  -1   7  -4 13467.4 636.367   4
  -1   7  -5 34858.0 1013.18  13
   1  -7   5 38751.7 3223.50   1
  -1   7  -5 36064.6 1058.85   4
  -1   7  -6 21348.8 850.453  12
  -1   7  -6 23655.3 795.765  13
   1  -7   6 27231.7 2921.94   1
  -1   7  -6 24821.7 910.999   4
   1  -7   7 5805.90 1525.72   1
  -1   7  -7 4463.51 410.321  12
  -1   7  -7 4646.70 416.437   4
  -1   7  -8 14849.8 750.246   4
  -1   7  -8 14198.3 740.184  12
  -1   7  -9 1013.15 224.977  12
  -1   7  -9 376.639 113.637  14
  -1   7  -9 748.016 193.466   4
   1  -7   9 1133.93 673.042   3
  -1   7 -10 2515.68 312.082  12
  -1   7 -10 2422.68 318.917   4
  -1   7 -11 4007.09 374.161  12
   1  -7  11 3599.63 317.275   5
  -1   7 -11 3200.65 304.439   8
  -1   7 -11 4145.73 386.435   4
   1  -7  12 1951.82 202.042   5
  -1   7 -12 1906.52 245.735  12
  -1   7 -13 237.911 95.3110  12
   1  -7  13 257.908 76.3883   5
  -1   6  11 109.453 68.9988   6
  -1   6  10-120.673 75.8052  10
  -1   6  10-51.8116 55.2831   9
  -1   6  10 20.3366 74.3091   6
  -1   6   9 1192.91 198.396   9
  -1   6   9 973.483 190.814   6
  -1   6   9 721.942 155.646  10
  -1   6   8 195.420 117.348   9
  -1   6   8 163.638 111.464  10
  -1   6   8 348.100 145.430   6
  -1   6   7 110.671 106.496  10
  -1   6   7 103.264 113.064   6
  -1   6   7 10.1118 91.5816   9
  -1   6   6 7948.16 545.497   9
  -1   6   6 7917.52 596.492  16
  -1   6   6 7977.46 538.765   6
  -1   6   6 8519.67 537.762  10
  -1   6   5 19762.5 903.978  16
  -1   6   5 19735.7 778.367  10
  -1   6   5 19304.9 826.922   9
  -1   6   5 18685.9 781.871   6
   1  -6  -5 18491.5 2431.46   1
  -1   6   4 2309.32 257.736   6
  -1   6   4 2008.74 233.765  10
  -1   6   4 2342.43 280.676   9
  -1   6   4 1967.77 687.961   2
  -1   6   4 2215.25 262.423  17
   1  -6  -4 2165.46 667.418   1
  -1   6   4 2660.21 344.036  16
   1  -6  -3 63707.8 3810.61   1
  -1   6   3 53000.4 1197.90  17
  -1   6   3 54402.7 1233.33   9
  -1   6   3 54677.2 1545.27  11
  -1   6   3 53056.9 1103.44   6
  -1   6   3 52421.5 1357.35  16
  -1   6   3 54454.2 1090.99  10
  -1   6   3 61095.2 3729.90   2
  -1   6   2 284.332 181.912  11
  -1   6   2 602.544 115.829   6
  -1   6   2 575.292 114.114  10
  -1   6   2 323.324 102.830  13
  -1   6   2 475.181 126.864  17
  -1   6   2 562.447 129.225   9
   1  -6  -2 581.735 347.444   1
  -1   6   2 493.531 302.786   2
  -1   6   2 799.652 194.358  16
  -1   6   1 6234.59 1104.99   2
  -1   6   1 5893.73 366.796   9
   1  -6  -1 6307.36 1022.67   1
  -1   6   1 5766.58 365.118  17
  -1   6   1 6454.11 486.668  11
  -1   6   1 6799.92 431.429  16
   1  -6   0 315.286 187.250   1
   1  -6   1 78853.0 3499.79   1
   1  -6   2 43047.6 2677.03   1
   1  -6   3 93675.9 4075.78   1
   1  -6   4 71917.6 3843.00   1
  -1   6  -4 72085.1 1352.53  13
  -1   6  -5 223.622 80.4866  13
  -1   6  -5 217.493 106.494   4
  -1   6  -6 23039.9 859.280  12
  -1   6  -6 24429.6 849.482   4
  -1   6  -7 16006.8 771.587  12
  -1   6  -7 17294.2 745.392   4
   1  -6   8 2861.63 1126.91   1
  -1   6  -8 2304.33 306.074  12
  -1   6  -8 2322.02 294.416   4
   1  -6   8 1904.13 833.999   3
  -1   6  -9 39.0106 99.7109   4
  -1   6  -9 33.9329 106.382  12
  -1   6 -10 2092.22 297.163   4
  -1   6 -10 2322.24 312.843  12
  -1   6 -11 9995.61 613.622  12
   1  -6  11 8630.52 488.142   5
  -1   6 -11 9438.12 582.732   4
  -1   6 -12 206.524 120.204  12
   1  -6  12 71.2455 71.6020   5
  -1   6 -13 330.253 116.502  12
   1  -6  13 234.280 76.8261   5
  -1   5  11-47.6890 67.8017   6
  -1   5  11 18.4394 57.3476  10
  -1   5  10 632.678 153.760   6
  -1   5  10 551.238 136.446   9
  -1   5  10 484.099 127.835  10
  -1   5   9 115.795 124.458   6
  -1   5   9 103.467 106.325  10
  -1   5   9 148.652 107.779   9
  -1   5   8 511.963 149.867  10
  -1   5   8 640.625 165.938   9
  -1   5   8 798.870 189.304   6
  -1   5   7 8779.03 559.077  10
  -1   5   7 8640.64 590.100  16
  -1   5   7 8920.65 569.178   9
  -1   5   7 9082.70 576.920   6
  -1   5   6 2406.84 289.273  10
  -1   5   6 2451.97 298.006   9
  -1   5   6 2284.48 284.298   6
  -1   5   6 1890.03 775.162   2
  -1   5   6 2158.34 314.218  16
  -1   5   5 25118.5 934.499  16
  -1   5   5 24852.5 881.681   9
  -1   5   5 24452.7 831.580   6
  -1   5   5 24728.8 2607.85   2
  -1   5   5 25093.6 833.970  10
  -1   5   4 132.417 153.465  11
  -1   5   4 270.024 156.089   2
  -1   5   4 134.744 84.7346   9
  -1   5   4 286.394 160.047  16
  -1   5   4 328.922 109.982  10
  -1   5   4 259.580 104.999   6
  -1   5   4 423.784 122.625  17
  -1   5   3 93715.4 1468.11   9
  -1   5   3 95801.9 1841.86  11
   1  -5  -3 91469.0 4037.56   1
  -1   5   3 95093.6 4286.22   2
  -1   5   3 93012.8 1434.39  17
  -1   5   3 91425.1 1621.93  16
  -1   5   2 1640.83 580.932   2
   1  -5  -2 1810.07 523.673   1
  -1   5   1 20558.1 1795.98   2
   1  -5  -1 20893.9 1623.75   1
  -1   5   0 69979.3 3271.12   2
   1  -5   0 70399.9 2846.18   1
   1  -5   1 24739.5 1736.71   1
   1  -5   2 13470.5 1346.11   1
   1  -5   3 27916.5 2073.31   1
   1  -5   4 2832.20 676.615   1
   1  -5   5 2174.07 697.269   1
  -1   5  -6 59467.8 1322.51  12
  -1   5  -6 57871.0 1233.18   4
  -1   5  -7 61154.5 1323.19   4
  -1   5  -7 62143.0 1408.95  12
  -1   5  -8 18527.7 798.446  12
  -1   5  -8 17467.0 750.804   4
   1  -5   8 16680.4 2240.60   3
   1  -5   9 22460.8 2677.54   3
  -1   5  -9 25158.7 942.197   4
  -1   5  -9 25472.8 966.817  12
  -1   5 -10-68.3226 131.146  12
  -1   5 -10 143.690 114.096   4
   1  -5  10-13.6787 81.9364   5
   1  -5  11 626.372 144.945   5
  -1   5 -11 842.900 211.612  12
  -1   5 -11 524.463 157.236   4
  -1   5 -12-47.9978 107.766  12
   1  -5  12 16.5540 58.3673   5
  -1   5 -13 1994.28 243.237  12
   1  -5  13 1826.74 181.384   5
  -1   5 -14 94.1478 65.1405  12
  -1   4  12 135.247 54.2865  10
  -1   4  12-10.6153 56.8256   6
  -1   4  11 39.4053 70.5085  10
  -1   4  11 55.2574 64.8697   9
  -1   4  11 130.923 90.9239   6
  -1   4  10 212.249 131.352   6
  -1   4  10 27.2957 70.9303   9
  -1   4  10 126.725 80.7449  10
  -1   4   9 296.535 123.794  10
  -1   4   9 330.454 127.132   9
  -1   4   9 393.167 163.455   6
  -1   4   8-8.25238 91.6453   9
  -1   4   8 3.95964 79.7086  10
  -1   4   8 116.216 104.585   6
  -1   4   8 31.8462 148.720  16
  -1   4   7 5651.79 446.922  16
  -1   4   7 5713.92 444.878  10
  -1   4   7 5358.99 428.804   6
  -1   4   7 4716.72 1244.78   2
  -1   4   7 5409.64 425.986   9
  -1   4   6 1447.22 229.763   6
  -1   4   6 1335.34 243.435  16
  -1   4   6 1337.60 635.098   2
  -1   4   6 1476.22 233.555  10
  -1   4   6 1318.52 217.927   9
  -1   4   5 27228.3 859.627   9
  -1   4   5 28298.5 739.443  17
  -1   4   5 27230.0 918.523  16
  -1   4   5 29700.9 860.506  10
  -1   4   5 27641.9 2631.96   2
  -1   4   5 29540.0 1002.32  11
  -1   4   5 27819.1 830.418   6
  -1   4   4 14836.3 582.617   9
  -1   4   4 15438.8 649.041  16
  -1   4   3 467988. 8707.96   2
   1  -4  -2 10388.0 1089.55   1
  -1   4   2 10735.4 1217.83   2
   1  -4  -1 4234.00 637.546   1
  -1   4   1 4282.52 719.515   2
   1  -4   0 153276. 3583.82   1
  -1   4   0 154039. 4264.94   2
   1  -4   1 227379. 4543.17   1
   1  -4   2 189516. 4429.55   1
   1  -4   3 1903.50 507.422   1
   1  -4   4 33549.6 2298.85   1
   1  -4   5 155290. 5627.25   1
  -1   4  -6 4602.74 355.680  12
  -1   4  -6 4754.96 338.501   4
  -1   4  -7 35615.3 1019.81  12
   1  -4   7 37311.4 3023.15   3
  -1   4  -7 34726.3 958.986   4
  -1   4  -8 20162.6 806.493  12
   1  -4   8 20235.0 2375.65   3
  -1   4  -8 19201.6 762.363   4
  -1   4  -9 628.960 168.490  12
  -1   4  -9 717.864 167.021   4
   1  -4   9 488.467 507.940   3
   1  -4   9 613.997 154.821   5
   1  -4  10 3912.55 349.265   5
  -1   4 -10 4600.39 418.104  12
  -1   4 -10 3845.11 378.995   4
  -1   4 -11 3273.28 349.822  12
   1  -4  11 2928.19 295.907   5
  -1   4 -12 2757.53 321.624  12
   1  -4  12 2273.21 242.533   5
   1  -4  13 19.9123 42.7975   5
  -1   4 -13 65.0776 93.0818  12
  -1   4 -14 249.924 82.8310  12
  -1   3  12 120.608 71.4865  10
  -1   3  12 114.684 69.4448   6
  -1   3  11 172.068 113.837   6
  -1   3  11 232.157 84.5759   9
  -1   3  11 250.607 111.744  10
  -1   3  10 43.9790 78.8908   9
  -1   3  10 95.8454 127.323   6
  -1   3  10 3.82653 84.0642  10
  -1   3   9 67.8158 119.796  10
  -1   3   9-54.6929 92.9325   9
  -1   3   9 12.5044 95.2261   6
  -1   3   8 48.2454 125.506  16
  -1   3   8 59.2810 108.299   6
  -1   3   8-0.26752 74.2683   9
  -1   3   7 11856.8 603.543   9
  -1   3   7 11327.6 616.914  16
  -1   3   7 12213.5 606.986   6
  -1   3   7 11689.3 2002.18   2
  -1   3   6 8883.59 490.567   9
  -1   3   6 6881.70 419.475   7
  -1   3   6 8644.58 485.591   6
  -1   3   6 8886.92 513.868  16
  -1   3   6 8730.58 1614.68   2
  -1   3   5 28607.4 799.566   9
  -1   3   5 29314.4 2670.12   2
  -1   3   5 28509.4 776.330   6
  -1   3   4 11809.3 1498.61   2
  -1   3   3 6017.88 933.490   2
  -1   3   2 492.648 281.907   2
   1  -3  -1 193589. 3494.06   1
  -1   3   1 194689. 4272.36   2
  -1   3   0 730.280 265.765   2
   1  -3   0 535.742 181.793   1
   1  -3   1 14632.5 972.858   1
   1  -3   2 64271.3 2312.84   1
   1  -3   3 109136. 3482.78   1
   1  -3   4 189362. 5418.77   1
   1  -3   5 150553. 5603.31   1
   1  -3   6 888.776 474.045   3
  -1   3  -7 37102.7 1000.35  12
  -1   3  -7 35453.2 954.447   4
   1  -3   7 33672.1 2839.95   3
  -1   3  -8 25792.3 883.148  12
   1  -3   8 27540.0 821.305   5
  -1   3  -8 24366.5 837.159   4
   1  -3   8 25547.6 2564.82   3
  -1   3  -9 24704.2 908.990  12
   1  -3   9 23846.5 803.357   5
   1  -3  10 19811.9 755.984   5
  -1   3 -10 21063.2 862.681  12
   1  -3  11 2.99687 62.1317   5
  -1   3 -11-125.633 118.690  12
   1  -3  12 866.080 146.692   5
  -1   3 -12 1050.01 198.805  12
  -1   3 -13 73.4765 92.2884  12
   1  -3  13 49.1097 67.7179   5
   1  -3  14 54.5449 53.5060  10
  -1   2  13 259.144 88.6722   6
  -1   2  13 73.8901 53.5334  10
  -1   2  12 836.360 154.473  10
  -1   2  12 863.411 170.520   6
  -1   2  11 781.081 175.837  10
  -1   2  11 697.667 170.807   6
  -1   2  11 866.793 164.186   9
  -1   2  10 537.695 171.469   6
  -1   2  10 281.869 115.915   9
  -1   2   9 4765.18 1398.37   2
  -1   2   9 5341.08 421.082   9
  -1   2   9 5542.50 447.881   6
  -1   2   8-21.6227 644.283   2
  -1   2   8 247.849 112.500   6
  -1   2   8 393.629 132.225   9
  -1   2   8 362.832 141.068  16
  -1   2   7 1173.87 189.299   9
  -1   2   7 830.661 165.961  16
  -1   2   7 918.607 202.142   7
  -1   2   7 1178.92 194.816   6
  -1   2   7 1339.62 708.866   2
  -1   2   6 53285.5 1100.70   6
  -1   2   6 56938.9 4033.96   2
  -1   2   6 53244.4 1124.71   9
  -1   2   5 1663.84 620.202   2
  -1   2   4 17645.9 916.028   3
  -1   2   4 20675.2 1934.14   2
  -1   2   3 61277.8 2878.92   2
  -1   2   2 933081. 9410.43   2
  -1   2   1 149754. 3231.41   2
   1  -2   0 71438.8 1416.64   1
  -1   2   0 66334.9 2034.10   2
   1  -2   1 160170. 2687.07   1
   1  -2   2 9558.86 844.104   1
   1  -2   3 141911. 4079.64   1
   1  -2   4 12419.2 1476.36   1
   1  -2   5 15173.2 1615.21   3
   1  -2   6 12901.9 1582.27   3
  -1   2  -7 1187.81 194.310  12
   1  -2   7 1030.12 520.617   3
   1  -2   7 879.613 150.578   5
  -1   2  -7 1328.41 185.273   4
  -1   2  -8 77458.9 1500.05  12
  -1   2  -8 76461.0 1444.52   4
   1  -2   8 76729.8 1363.99   5
   1  -2   8 72411.5 1295.06   6
   1  -2   9 1103.09 627.587   3
  -1   2  -9 2088.22 267.914  12
   1  -2   9 2387.91 256.161   6
   1  -2   9 1591.27 775.877   2
   1  -2   9 2009.90 251.628   5
   1  -2  10 2378.75 269.444   5
   1  -2  10 2619.85 269.239   6
  -1   2 -10 2490.42 307.024  12
   1  -2  11 159.223 77.6618   6
  -1   2 -11 241.242 124.696  12
   1  -2  11 54.0030 63.4964   5
   1  -2  12 1691.55 196.568   5
  -1   2 -12 1541.24 234.981  12
  -1   2 -13 338.973 115.055  12
  -1   1  13 672.536 134.663  10
  -1   1  13 526.934 125.107   6
  -1   1  12 1410.31 212.196   6
  -1   1  11 178.718 98.8660   9
  -1   1  11 39.3478 82.0638   6
  -1   1  10 188.519 102.373   9
  -1   1  10 464.684 352.850   2
  -1   1  10 122.876 101.512   6
  -1   1   9 1329.42 681.331   2
  -1   1   9 1196.66 228.039   6
  -1   1   9 1165.44 204.128   9
  -1   1   8 2251.75 265.904   6
  -1   1   8 1729.96 274.587   7
  -1   1   8 1193.31 592.333   2
  -1   1   8 1985.19 252.592   9
  -1   1   7 11549.0 552.753   9
  -1   1   7 11097.3 1876.80   2
  -1   1   7 10660.8 518.689   6
  -1   1   7 10985.9 580.608   7
  -1   1   6 10720.9 1687.32   2
  -1   1   5 313.190 285.705   2
  -1   1   5 375.192 139.008   3
  -1   1   4 10640.3 1399.13   2
  -1   1   4 9429.23 627.876   3
  -1   1   3 158697. 1864.57   3
  -1   1   3 194165. 4875.71   2
  -1   1   2 65364.2 2361.53   2
   1  -1  -1 233413. 1639.88   3
  -1   1   1 234446. 3569.68   2
  -1   1   0 137309. 2364.62   2
   1  -1   1 624.955 194.711   3
   1  -1   2 27897.3 1477.33   3
   1  -1   3 11388.6 1065.07   3
   1  -1   4 276226. 5958.90   3
   1  -1   5 428.819 318.099   3
   1  -1   6 3691.07 832.528   3
   1  -1   7 10898.0 486.532   5
  -1   1  -7 11022.9 519.462   4
  -1   1  -7 11186.9 544.635  12
   1  -1   7 9692.81 453.737   6
  -1   1  -8 3713.45 344.297  12
   1  -1   8 3390.94 291.212   6
   1  -1   8 3711.75 307.223   5
   1  -1   8 4242.66 1303.28   2
   1  -1   8 2917.88 840.192   3
   1  -1   9 1511.87 219.937   6
  -1   1  -9 1420.33 226.936  12
   1  -1   9 1389.08 206.275   5
   1  -1  10 10180.5 547.503   6
   1  -1  10 8774.34 503.569   5
  -1   1 -10 9132.37 547.313  12
  -1   1 -11 5669.01 425.086  12
   1  -1  11 6131.62 406.057   5
  -1   1 -12-1.67718 74.7228  12
   1  -1  12 33.0812 49.0257   5
   1  -1  12 126.451 95.3463   6
   1  -1  13 245.742 86.4186  10
  -1   0  14 4.47673 48.8981  10
  -1   0  13 18.3655 59.7196   6
  -1   0  12 289.187 120.185   6
  -1   0  12 301.592 101.858   9
   1   0 -11-23.3552 120.774  12
  -1   0  11 160.070 117.644   6
  -1   0  11 187.998 102.108   9
  -1   0  10 1396.97 234.987   6
  -1   0  10 1366.62 212.594   9
   1   0 -10 1138.83 195.929  12
   1   0  -9 3007.41 301.682  12
  -1   0   9 3467.26 326.667   9
  -1   0   9 3546.68 338.320   6
  -1   0   8 2871.06 301.980   9
  -1   0   8 2733.16 965.324   2
  -1   0   8 2868.93 335.931   7
  -1   0   8 2758.85 290.520   6
   1   0  -8 2377.78 251.062  12
  -1   0   7 30973.0 3169.53   2
  -1   0   7 40368.7 1066.04   7
  -1   0   6 11100.9 1727.75   2
  -1   0   6 11248.9 1026.60   3
  -1   0   5 129313. 3139.96   3
  -1   0   5 129579. 5552.74   2
  -1   0   4 2237.19 633.961   2
  -1   0   4 2488.67 678.135   1
  -1   0   4 2031.03 349.515   3
  -1   0   3 859293. 10858.9   2
  -1   0   3 851777. 9085.47   1
  -1   0   2 47597.7 2029.76   2
  -1   0   2 43492.8 1560.10   1
  -1   0   1 7394.17 461.432   1
  -1   0   1 7701.25 578.018   2
   1   0  -1 6989.75 379.665   3
   1   0   0 384172. 3531.90   3
  -1   0   0 374671. 2856.11   2
   1   0   1 1736.12 361.853   3
   1   0   2 32149.7 1526.32   3
   1   0   3 59577.9 2396.77   3
   1   0   4 12783.9 1241.79   3
   1   0   5 98304.6 3791.05   3
   1   0   6 20867.9 2415.79   2
   1   0   6 18445.2 1815.54   3
   1   0   7 182.247 69.4594   6
   1   0   7 120.474 65.5771   5
  -1   0  -7 176.299 107.007  12
   1   0   7 384.897 358.280   3
   1   0   8 41.0967 203.421   3
  -1   0  -8 91.3931 79.6654  12
   1   0   8 23.7561 85.3100   6
   1   0   8 19.2929 69.1170   5
  -1   0  -9 10416.6 574.986  12
   1   0   9 11637.2 571.128   5
   1   0   9 11927.8 596.407   6
   1   0  10 2102.49 245.882   5
  -1   0 -10 2039.92 273.473  12
   1   0  10 2200.74 270.055   6
  -1   0 -11 833.235 165.551  12
   1   0  11 1098.30 190.029   6
   1   0  11 843.112 156.410   5
   1   0  12 60.4761 65.9361  10
   1   0  12 58.2033 57.1004   5
   1   0  12 45.2304 70.1946   6
   1   0  13 277.740 88.3114  10
  -1  -1  14 87.8825 55.5333  10
  -1  -1  14 172.973 78.9595   6
  -1  -1  13 88.7980 80.3950   6
   1   1 -13-30.2284 76.3803  12
  -1  -1  12 3500.58 318.463   6
  -1  -1  12 2995.60 283.730   9
   1   1 -12 2819.14 301.168  12
  -1  -1  11 2100.57 270.471   6
  -1  -1  11 2019.89 250.687   9
   1   1 -11 1811.05 254.790  12
  -1  -1  10 359.474 105.874   9
   1   1 -10 474.859 144.459  12
  -1  -1  10 529.155 152.830   6
  -1  -1   9 755.173 157.459   6
  -1  -1   9 309.578 315.417   2
  -1  -1   9 688.516 163.506   9
  -1  -1   9 647.371 195.261   7
   1   1  -9 464.492 127.303  12
  -1  -1   8 2973.32 336.729   7
  -1  -1   8 1905.19 839.060   2
   1   1  -8 2493.36 262.242   4
   1   1  -8 2809.11 268.937  12
  -1  -1   7 12070.5 2053.37   2
  -1  -1   7 12118.2 1292.18   3
  -1  -1   7 14347.5 622.443   7
   1   1  -7 12767.2 524.485  12
  -1  -1   6 34624.0 3468.27   2
  -1  -1   6 31566.0 1971.58   3
  -1  -1   5 14872.3 1633.04   1
  -1  -1   4 2795.37 633.424   1
  -1  -1   3 733803. 8112.86   1
  -1  -1   1 96392.6 2163.46   1
   1   1  -1 98774.5 2169.08   3
   1   1   0 83710.5 2042.11   3
   1   1   1 2415.41 205.290   2
   1   1   1 2473.24 404.907   3
   1   1   2 1974.14 418.578   3
   1   1   2 2253.35 389.160   2
   1   1   3 1842.85 472.502   3
   1   1   3 1714.13 465.252   2
   1   1   4 97671.3 3918.87   2
   1   1   4 88444.0 3486.79   3
   1   1   5 128018. 4850.16   2
   1   1   5 122683. 4512.12   3
   1   1   6 34503.9 839.644   5
   1   1   6 30849.3 2583.43   2
   1   1   6 31368.8 2483.26   3
   1   1   7 18565.3 669.342   5
   1   1   7 18453.1 707.091   6
  -1  -1  -7 17503.6 672.270  12
   1   1   8 53.1679 63.9124   5
  -1  -1  -8 268.859 107.918  12
   1   1   8 74.4712 103.111   6
   1   1   9-78.0225 97.6900   5
   1   1   9 30.7438 81.8700   6
  -1  -1  -9 67.7235 85.5973  12
   1   1  10 34.4707 84.0558   6
   1   1  10 22.9177 63.7813   5
   1   1  11 1029.30 196.234  10
   1   1  11 668.689 131.903   5
   1   1  11 986.769 183.171   6
   1   1  12 67.9488 68.4679   6
   1   1  12 225.778 92.7818  10
   1   1  13 15.4956 48.2116  10
  -1  -2  14 462.285 96.2565   6
  -1  -2  13 30.3160 65.2967   6
   1   2 -13 114.156 85.0765  12
  -1  -2  12 1382.02 204.198   6
   1   2 -12 1112.70 203.359  12
  -1  -2  12 1070.55 164.913   9
  -1  -2  11 600.191 150.029   6
   1   2 -11 379.748 142.026  12
  -1  -2  11 488.047 136.836   9
   1   2 -10 778.909 173.652  12
  -1  -2  10 917.475 186.384   6
   1   2 -10 696.475 178.391   4
  -1  -2  10 621.923 520.199   2
  -1  -2  10 674.188 163.138   9
  -1  -2   9 357.730 109.896   5
  -1  -2   9 589.696 566.968   2
   1   2  -9 374.936 127.908   4
   1   2  -9 373.348 133.817  12
  -1  -2   9 339.122 160.434   7
  -1  -2   8 587.893 615.604   2
  -1  -2   8 65.4738 101.082   7
   1   2  -8 141.258 103.018  12
   1   2  -8 75.4383 76.6542   4
   1   2  -7 1516.90 206.304  12
  -1  -2   7 2003.66 835.524   1
  -1  -2   7 1683.56 228.383   7
  -1  -2   7 1730.92 534.432   3
  -1  -2   6 31799.4 2725.37   1
  -1  -2   5 210403. 5936.15   1
  -1  -2   4 17731.9 1511.51   1
  -1  -2   3 4495.47 671.190   1
  -1  -2   2 999999. 9095.37   1
   1   2  -1 44412.5 1858.06   3
  -1  -2   1 41751.6 1760.80   1
  -1  -2   0 161922. 3499.56   1
   1   2   0 161527. 3482.89   3
   1   2   1 75513.0 2503.35   3
   1   2   1 71028.8 1262.55   2
   1   2   2 55843.4 1608.26   2
   1   2   2 57751.1 2438.48   3
   1   2   3 1456.56 433.712   3
   1   2   3 1442.94 368.171   2
   1   2   4 120683. 3910.49   2
   1   2   4 124350. 4452.79   3
   1   2   5 415.924 276.517   2
   1   2   5 634.249 373.530   3
   1   2   6 25534.6 2372.61   2
   1   2   6 25963.7 2350.40   3
   1   2   6 27057.4 791.328   5
   1   2   6 28903.0 857.788   6
   1   2   7 542.449 126.718   5
   1   2   7 742.028 159.978   6
   1   2   8 14050.8 635.132   5
   1   2   8 14444.7 681.633   6
   1   2   9 138.362 108.799   6
   1   2   9 147.633 131.935  10
   1   2   9 185.779 104.195   5
   1   2  10-44.3584 108.010  10
   1   2  10-0.62517 69.9623   5
   1   2  10 12.7857 90.4645   6
   1   2  11 361.903 117.438   6
   1   2  11 246.420 106.913  10
   1   2  12 948.258 157.841  10
   1   2  12 757.032 135.861   6
  -1  -3  14 1208.72 145.136   6
   1   3 -14 1078.11 163.084  12
  -1  -3  13 88.9700 64.0199   6
   1   3 -13-53.9914 90.8536  12
   1   3 -12 680.444 173.467  12
  -1  -3  12 838.839 160.781   6
  -1  -3  12 545.643 135.096   9
   1   3 -11 2156.28 296.369  12
   1   3 -11 2005.33 262.113   4
  -1  -3  11 2047.22 257.658   6
  -1  -3  11 1805.73 240.059   9
  -1  -3  10 1824.41 215.487   5
  -1  -3  10 1580.38 1049.46   2
   1   3 -10 2293.37 306.482  12
   1   3 -10 1918.59 255.262   4
   1   3  -9 4584.16 401.089  12
  -1  -3   9 3776.62 1310.32   2
  -1  -3   9 3899.01 394.995   7
   1   3  -9 4763.51 379.304   4
   1   3  -8 1616.65 220.193   4
   1   3  -8 1576.19 241.097  12
  -1  -3   8 2276.27 925.779   1
  -1  -3   8 1594.76 242.109   7
  -1  -3   8 1895.38 674.128   3
  -1  -3   7 736.142 508.289   1
  -1  -3   7 1099.24 187.911   7
   1   3  -7 1560.76 211.988  12
   1   3  -7 929.177 157.523   4
  -1  -3   6 18653.0 2010.85   1
  -1  -3   5 59410.4 3234.23   1
  -1  -3   4 31293.4 2113.67   1
  -1  -3   3 2279.34 527.884   1
  -1  -3   2 55945.1 2410.07   1
  -1  -3   1 8000.30 871.715   1
   1   3   0 1812.73 445.345   3
  -1  -3   0 2091.47 495.307   1
   1   3   1 205539. 2895.02   2
   1   3   1 201663. 4867.08   3
   1   3   2 9233.70 1107.65   3
   1   3   2 9767.25 735.115   2
   1   3   3 30000.5 2156.76   3
   1   3   3 30374.0 1546.43   2
   1   3   4 544.694 181.780   2
   1   3   4 912.993 462.124   3
   1   3   5 59.8119 76.5254  10
   1   3   5 58.7829 73.6462   6
   1   3   5 108.480 90.3603   5
   1   3   5-205.773 409.408   3
   1   3   6 2162.97 246.040   5
   1   3   6 2097.97 269.587  10
   1   3   6 1921.67 264.426   6
   1   3   6 2418.40 866.606   3
   1   3   7 7403.91 463.670   5
   1   3   7 7817.20 515.052   6
   1   3   7 7837.63 514.870  10
   1   3   8 30441.8 951.062   5
   1   3   8 32776.8 1086.87  10
   1   3   8 32977.1 1071.02   6
   1   3   9 2569.82 301.951   6
   1   3   9 2174.32 249.169   5
   1   3   9 2667.36 322.354  10
   1   3  10 72.4684 81.1891  10
   1   3  10 195.815 105.413   6
   1   3  10 23.9219 54.1247   5
   1   3  11-6.65510 58.4250  10
   1   3  11-34.5394 69.6308   6
   1   3  12-12.2780 50.3362  10
   1   4 -14-11.2875 70.8723  12
  -1  -4  13 1112.80 158.744   6
   1   4 -13 1221.07 207.888  12
   1   4 -12 1321.44 240.953  12
  -1  -4  12 1119.19 178.451   6
  -1  -4  12 973.810 161.665   9
   1   4 -12 860.671 165.511   4
  -1  -4  11 877.328 153.145   5
   1   4 -11 1204.59 251.691  12
   1   4 -11 646.591 183.238   4
   1   4 -10 751.986 198.510  12
   1   4 -10 642.950 174.732   4
  -1  -4   9 1667.88 257.498   7
   1   4  -9 1111.61 200.444   4
   1   4  -9 1236.50 244.877  12
   1   4  -8 20964.6 822.937  12
  -1  -4   8 19577.0 768.514   7
   1   4  -8 19126.5 749.024   4
  -1  -4   7 795.872 570.494   1
   1   4  -7 1087.82 195.618  12
  -1  -4   7 574.861 144.248   7
   1   4  -7 869.048 170.604   4
  -1  -4   6 23548.5 2319.85   1
   1   4  -6 21801.2 707.105   4
   1   4  -6 22306.1 754.073  12
  -1  -4   5 81.5067 190.211   1
  -1  -4   4 55311.4 3013.17   1
  -1  -4   3 187273. 5216.85   1
  -1  -4   2 5144.91 808.050   1
  -1  -4   1 5660.78 876.288   1
  -1  -4   0 528.051 302.388   1
  -1  -4  -1 32492.6 2267.98   1
   1   4   1 30095.4 2215.50   3
   1   4   2 22786.1 2016.48   3
   1   4   3 18312.4 1948.79   3
   1   4   3 18166.4 599.044  10
   1   4   3 18912.2 620.989   6
   1   4   4 6400.28 402.416   6
   1   4   4 5808.59 1207.08   3
   1   4   4 6536.26 393.168  10
   1   4   4 6054.25 371.724   9
   1   4   4 6760.98 392.382   5
   1   4   5 1797.92 232.774  10
   1   4   5 1651.24 220.054   9
   1   4   5 1995.95 239.953   6
   1   4   5 1750.71 203.874  17
   1   4   5 1703.71 212.847   5
   1   4   5 2327.48 800.469   3
   1   4   6 25713.2 870.648   5
   1   4   6 27190.8 936.186   6
   1   4   6 27149.3 870.189   9
   1   4   6 25940.3 917.671  10
   1   4   6 26368.1 753.735  17
   1   4   7 132.574 108.295   6
   1   4   7 78.7056 72.9539   5
   1   4   7 198.181 103.694  10
   1   4   8 1904.48 268.160   6
   1   4   8 1909.37 273.678  10
   1   4   8 1562.75 223.119   5
   1   4   9 1499.23 242.975  10
   1   4   9 1220.03 188.783   5
   1   4   9 1277.86 220.264   6
   1   4  10 15.2380 67.9852  10
   1   4  10 46.7926 77.7597   6
   1   4  11 70.4883 77.5929   6
   1   4  11 48.9111 72.3165  10
   1   5 -14 477.952 112.387  12
  -1  -5  13 789.370 130.075   6
   1   5 -13 707.465 154.885  12
  -1  -5  12 2337.25 239.846   6
   1   5 -12 2443.13 301.943  12
   1   5 -12 2071.16 275.038   4
  -1  -5  12 1821.19 235.050   9
   1   5 -11 767.208 197.810   4
  -1  -5  11 761.468 154.986   5
   1   5 -11 1035.40 222.604  12
  -1  -5  10 1212.90 747.856   2
   1   5 -10 1444.76 251.055   4
   1   5 -10 1455.92 262.117  12
   1   5  -9 4720.82 431.421  12
  -1  -5   9 6125.78 1660.19   1
   1   5  -9 4722.67 418.575   4
   1   5  -8 5433.85 450.924  12
   1   5  -8 4927.53 414.333   4
  -1  -5   8 5246.06 433.356   7
  -1  -5   8 6231.57 1495.70   1
   1   5  -7 26.7433 107.512  12
  -1  -5   7 90.1274 86.8157   7
   1   5  -7 288.904 130.627   4
  -1  -5   7 253.814 384.563   1
   1   5  -6 2652.69 285.381  12
  -1  -5   6 2625.35 831.208   1
   1   5  -6 2242.72 237.375   4
   1   5  -5 5848.44 384.079   4
  -1  -5   5 5912.55 1143.01   1
   1   5  -5 6310.66 383.097  10
  -1  -5   4 34523.6 2550.45   1
  -1  -5   3 317.135 300.018   1
  -1  -5   2 10785.6 1350.95   1
  -1  -5   1 3217.22 775.837   1
  -1  -5   0 39785.0 2731.67   1
  -1  -5  -1 24106.3 2235.45   1
   1   5   2 55669.3 1083.59   5
   1   5   2 54843.2 1078.30   6
   1   5   2 52577.3 1059.69  10
   1   5   2 54087.0 1125.59   9
  -1  -5  -2 55855.7 3545.92   1
   1   5   3 19966.6 691.287  10
  -1  -5  -3 20830.8 2363.29   1
   1   5   3 20146.6 709.218   6
   1   5   3 20270.1 699.707   5
   1   5   3 20020.9 718.545   9
   1   5   4 122.848 92.6257   5
   1   5   4 327.375 112.823   9
  -1  -5  -4 274.410 439.150   1
   1   5   4 299.408 110.884   6
   1   5   4 231.040 99.3600  10
   1   5   4 313.807 126.635  17
   1   5   5 5742.27 421.642  10
   1   5   5 5796.01 418.406   9
   1   5   5 5844.00 389.411  17
   1   5   5 5525.99 422.450   6
   1   5   5 5558.86 420.574   5
   1   5   6 149.628 107.476   6
   1   5   6 52.8311 96.6400   9
   1   5   6 104.970 101.387  10
   1   5   6 58.4653 86.2897   5
   1   5   6 57.6736 90.5276  17
   1   5   7 661.708 180.694  10
   1   5   7 647.233 168.208   6
   1   5   7 521.364 119.789  17
   1   5   7 645.034 152.321   5
   1   5   8-40.1797 90.2623   5
   1   5   8 41.3902 104.838   6
   1   5   8 87.4710 81.8055  10
   1   5   9 383.230 138.685   6
   1   5   9 322.874 109.402  10
   1   5  10 306.370 110.220   6
   1   5  10 471.653 125.645  10
   1   6 -14 114.016 67.1862  12
   1   6 -13 148.887 100.227   4
   1   6 -13 114.718 97.0724  12
   1   6 -12 6857.48 479.573  12
   1   6 -12 6391.45 463.676   4
  -1  -6  12 6582.18 391.272   6
  -1  -6  12 5993.08 352.212   5
   1   6 -11-20.2478 111.508   4
   1   6 -11-9.17279 110.091  12
   1   6 -10 925.798 217.852  12
   1   6 -10 980.527 220.655   4
   1   6  -9 1653.89 264.757  12
   1   6  -9 2051.99 299.775   4
  -1  -6   9 2195.82 1113.98   1
   1   6  -8 126.976 106.211  12
   1   6  -8 328.735 154.815   4
   1   6  -7 40310.6 1170.62  12
   1   6  -7 41038.4 1157.01   4
  -1  -6   7 40607.5 3585.69   1
   1   6  -6 4061.91 346.367  10
   1   6  -6 4174.33 358.767  12
  -1  -6   6 3581.82 1037.18   1
   1   6  -6 3931.29 353.301   4
   1   6  -5 14963.0 641.733  12
   1   6  -5 17796.1 674.869  10
   1   6  -5 17814.7 688.005   4
  -1  -6   5 17388.1 2051.80   1
   1   6  -4 90.3685 71.2736  10
  -1  -6   4-156.785 244.443   1
   1   6  -4 111.444 74.5404   4
   1   6  -3 44.8770 64.2258  10
  -1  -6   3 8.62360 194.826   1
   1   6  -3 49.2450 101.281   9
   1   6  -2 77258.0 1252.86  10
   1   6  -2 79902.8 1390.72   9
   1   6  -2 80727.8 1224.52   6
  -1  -6   2 82015.6 4166.55   1
   1   6  -1 715.007 133.385  10
  -1  -6   1 694.749 405.508   1
   1   6  -1 605.056 130.609   5
   1   6  -1 714.743 128.347   6
   1   6  -1 603.211 152.979   9
   1   6   0 6356.17 394.293   5
   1   6   0 6918.97 383.816   6
  -1  -6   0 6950.00 1257.46   1
   1   6   0 6627.60 378.048  10
   1   6   0 6790.18 422.099   9
   1   6   1 16199.5 664.132   9
   1   6   1 16971.3 633.892   6
   1   6   1 16469.9 639.405   5
   1   6   1 15992.3 608.816  10
  -1  -6  -1 17768.7 2131.58   1
   1   6   2 127.035 104.037   9
   1   6   2 129.520 72.9411   5
  -1  -6  -2-91.1047 359.655   1
   1   6   2 55.9654 64.0022  10
   1   6   2 131.722 87.9475   6
  -1  -6  -3 554.568 471.320   1
   1   6   3 69.5799 81.5906   5
   1   6   3 290.965 135.719  17
   1   6   3 189.719 97.3324  10
   1   6   3 195.906 101.817   9
   1   6   3 256.826 112.487   6
   1   6   4 18247.1 764.025  10
  -1  -6  -4 18469.6 2625.48   1
   1   6   4 18265.7 754.449   6
   1   6   4 17756.0 776.789   5
   1   6   4 18287.6 741.694  17
   1   6   4 18203.3 785.608   9
   1   6   5-24.6679 116.577   6
   1   6   5 99.1576 119.878   9
   1   6   5-88.5949 115.871  17
   1   6   5 12.5474 90.3248   5
   1   6   5 136.416 110.503  10
   1   6   6 18.7196 99.4322   6
   1   6   6 30.0681 82.0086  17
   1   6   6 64.4549 77.4981   5
   1   6   6 142.415 114.700  10
   1   6   6 43.4475 82.5318   9
   1   6   7 75.7625 92.2811   6
   1   6   7 16.2693 85.4948  10
   1   6   7 80.5711 71.1526   5
   1   6   7 100.992 80.8815  17
   1   6   8 2196.12 267.562   6
   1   6   8 2443.82 287.716  10
   1   6   9 130.991 82.8008   6
   1   6   9 139.411 85.6888  10
   1   6  10 163.194 71.6790   6
   1   6  10 1.55759 45.8184  10
   1   7 -13-33.4141 76.3106  12
   1   7 -13 83.0818 74.7354   4
   1   7 -12-9.50190 90.7709  12
  -1  -7  12 87.4550 57.0017   5
   1   7 -12 18.3677 81.6302   4
   1   7 -11 4779.04 406.774  12
   1   7 -11 5076.80 433.506   4
   1   7 -10 4938.12 438.184  12
   1   7 -10 5580.83 475.957   4
   1   7  -9 227.861 118.918  12
   1   7  -9 87.2314 114.495   4
   1   7  -8 7672.91 563.193   4
  -1  -7   8 7144.05 1735.76   1
   1   7  -8 6444.22 499.085  12
  -1  -7   7 16244.6 2371.22   1
   1   7  -7 13394.2 659.274  13
   1   7  -7 15931.4 758.352  12
   1   7  -7 16672.7 779.645   4
   1   7  -6 1343.11 211.323  10
   1   7  -6 1465.92 234.043   4
   1   7  -6 1128.82 229.099  12
  -1  -7   6 1598.38 810.737   1
   1   7  -5 10288.1 529.514  10
  -1  -7   5 10252.9 1721.63   1
   1   7  -5 10167.1 561.635   4
  -1  -7   4 227.011 560.086   1
   1   7  -4 340.192 115.419  10
   1   7  -3 88.8540 75.1338   4
  -1  -7   3 143.027 247.002   1
   1   7  -3 161.428 81.8954  10
   1   7  -3 288.844 151.669   9
   1   7  -3 221.659 70.4415  17
   1   7  -2 9501.44 475.339  10
   1   7  -2 8336.60 432.869  17
  -1  -7   2 9751.11 1626.76   1
   1   7  -2 9679.01 550.869   9
   1   7  -2 8797.16 468.725   4
   1   7  -1 2891.96 276.241  10
   1   7  -1 2699.67 315.360   9
  -1  -7   1 2717.28 890.026   1
   1   7  -1 3731.11 325.275  17
   1   7  -1 2961.10 283.321   6
   1   7   0 4971.14 362.580  10
   1   7   0 5030.40 364.777   6
   1   7   0 4867.73 398.811   9
   1   7   0 5222.55 384.489  17
   1   7   0 4885.59 386.684   5
  -1  -7   0 5286.05 1251.97   1
   1   7   1 16763.2 748.236   9
  -1  -7  -1 16287.2 2226.42   1
   1   7   1 17524.8 693.053  10
   1   7   1 16480.0 720.090   5
   1   7   1 18851.2 743.059  17
   1   7   1 16797.5 682.435   6
   1   7   2 25406.3 861.300  10
   1   7   2 23910.6 896.782   5
   1   7   2 25149.9 924.473   9
   1   7   2 25940.0 941.646  13
  -1  -7  -2 24437.7 2875.17   1
   1   7   2 24041.4 867.749   6
   1   7   2 25959.3 912.768  17
   1   7   3 2707.90 318.045   5
   1   7   3 2690.39 291.153  10
   1   7   3 2976.19 326.288  17
   1   7   3 2809.13 319.319   6
   1   7   3 2919.45 322.513   9
  -1  -7  -3 2329.95 1000.58   1
   1   7   4 2742.39 306.461  17
  -1  -7  -4 3530.86 1161.13   1
   1   7   4 2764.11 314.508  10
   1   7   4 2637.50 316.054   6
   1   7   4 2448.72 319.202   5
   1   7   4 2937.69 341.804   9
   1   7   5 1255.08 230.593   5
   1   7   5 1369.79 231.519  10
   1   7   5 1507.50 255.485   6
   1   7   5 1400.94 235.479   9
   1   7   5 1388.52 212.983  17
   1   7   6 2153.29 269.137   9
   1   7   6 2027.85 281.022   6
   1   7   6 1846.41 254.712   5
   1   7   6 2101.05 278.887  10
   1   7   6 1691.33 217.346  17
   1   7   7 270.630 121.984   6
   1   7   7 316.275 129.865  10
   1   7   8 158.704 75.9834  10
   1   7   8 288.684 109.752   6
   1   7   9 312.130 99.4197   6
   1   7   9 262.771 85.6923  10
   1   8 -13 215.378 88.5949   4
   1   8 -13 158.480 78.3354  12
   1   8 -12 63.8293 77.9893  12
  -1  -8  12-110.079 69.7805   5
   1   8 -12 39.2140 82.2921   4
   1   8 -11 69.3862 99.9997  12
   1   8 -11-73.1996 105.776   4
   1   8 -10 60.6059 117.307   4
   1   8 -10-20.6086 105.019  12
   1   8  -9 577.918 176.868  12
   1   8  -9 734.841 198.896   4
   1   8  -8 556.430 176.017   4
   1   8  -8 430.843 159.055  12
  -1  -8   7 198.336 234.222   1
   1   8  -7 38.4852 99.3273   4
   1   8  -7 8.35507 80.9511  13
  -1  -8   6 18408.4 2543.02   1
   1   8  -6 21080.7 873.012   4
   1   8  -6 19420.6 779.277  10
   1   8  -6 15734.2 790.906  13
  -1  -8   5 9278.32 1762.76   1
   1   8  -5 9790.31 540.159  10
   1   8  -5 10161.7 592.920   4
   1   8  -4 1690.11 229.775  10
   1   8  -4 1725.88 254.577   4
  -1  -8   4 1545.08 670.046   1
   1   8  -3 699.102 166.533   4
  -1  -8   3 451.572 552.906   1
   1   8  -3 538.855 134.553  10
   1   8  -3 537.569 174.315   9
   1   8  -3 302.523 88.0527  17
   1   8  -2 5373.80 462.768   9
  -1  -8   2 5269.59 1344.39   1
   1   8  -2 5677.50 402.451  10
   1   8  -2 4697.64 348.659  17
   1   8  -1 2739.90 283.998  17
  -1  -8   1 2723.38 966.095   1
   1   8  -1 3089.71 357.936   9
   1   8  -1 2853.89 294.914  10
   1   8  -1 2773.64 287.951   6
   1   8   0 23.2782 91.7227   6
  -1  -8   0-48.4274 524.054   1
   1   8   0 27.1565 91.1267  17
   1   8   0 21.4344 85.7230  10
   1   8   0 109.007 114.533   9
   1   8   1 1994.65 261.381  17
   1   8   1 1904.23 251.557  10
   1   8   1 1432.47 253.487  13
   1   8   1 2089.47 266.686   6
   1   8   1 1764.95 278.095   9
  -1  -8  -1 2101.45 898.483   1
   1   8   2 2271.72 285.918   6
   1   8   2 2465.38 301.250  10
   1   8   2 2844.63 320.434  17
   1   8   2 2206.80 312.854   5
   1   8   2 1984.91 317.803   9
  -1  -8  -2 1612.88 732.929   1
   1   8   2 1596.28 253.068  13
   1   8   3 145.796 117.741   6
   1   8   3-65.8795 91.5335  10
   1   8   3-38.0968 105.967   9
   1   8   3-5.29974 83.6139   5
   1   8   3-63.0003 115.539  17
   1   8   4 10170.5 615.334  10
   1   8   4 9467.14 611.076   5
   1   8   4 10326.5 601.418   6
   1   8   4 11268.9 657.498   9
   1   8   4 10280.6 570.992  17
   1   8   5 346.722 134.759   6
   1   8   5 202.387 122.662  10
   1   8   5 289.453 135.858   9
   1   8   5 223.170 108.915  17
   1   8   5 158.435 102.651   5
   1   8   6 1859.57 252.087  10
   1   8   6 1959.18 262.137   6
   1   8   6 2055.17 238.975   9
   1   8   7 21.5350 90.9145   6
   1   8   7 50.2536 59.4084  10
   1   8   8 428.455 102.157   6
   1   8   8 471.720 105.467  10
   1   9 -12 437.585 99.1170  12
   1   9 -12 785.959 133.836   4
  -1  -9  12 617.375 94.4367   5
   1   9 -12 324.836 94.4894   8
   1   9 -11-83.1281 105.269   4
   1   9 -11 90.6585 81.2347  12
   1   9 -10 400.075 143.199   4
   1   9 -10 288.918 116.856  12
   1   9  -9 165.800 111.846   4
   1   9  -8 536.372 164.452   4
   1   9  -8 255.471 101.691  13
   1   9  -7 6211.40 514.509   4
   1   9  -7 3711.69 368.470  13
  -1  -9   6 3301.85 1109.41   1
   1   9  -6 3329.36 333.344  10
   1   9  -6 3354.89 372.585   4
   1   9  -6 2592.23 346.957  13
   1   9  -5 1087.61 228.719   4
   1   9  -5 1096.77 197.555  10
   1   9  -5 906.974 234.083  13
  -1  -9   5 1366.78 743.136   1
   1   9  -4 1099.82 207.818   4
   1   9  -4 1078.05 196.681  10
  -1  -9   4 1057.96 651.026   1
   1   9  -4 961.509 248.798  13
  -1  -9   3 1759.20 767.279   1
   1   9  -3 1080.85 162.706  17
   1   9  -3 1327.53 292.655  13
   1   9  -3 1790.27 243.814  10
   1   9  -2 1143.28 277.277  13
   1   9  -2 1266.26 193.968  17
   1   9  -2 1791.49 246.544  10
   1   9  -2 1583.78 299.903   9
  -1  -9   2 1531.65 875.660   1
   1   9  -1 1532.02 238.882  10
   1   9  -1 1366.15 281.708   9
   1   9  -1 1298.63 207.705  17
   1   9  -1 1139.09 257.580  13
   1   9   0 244.686 106.572   6
   1   9   0 378.308 136.707  10
   1   9   0 271.276 136.515  17
   1   9   0 90.4490 130.186   9
   1   9   0 195.355 133.991  13
   1   9   1 214.029 129.478  17
   1   9   1 32.4535 109.967  13
   1   9   1 55.2184 80.8725  10
   1   9   1 221.313 130.768   6
   1   9   1 171.361 132.917   9
   1   9   2 29.1305 91.3537  13
   1   9   2-64.6262 114.099   6
   1   9   2 57.7003 120.372   9
   1   9   2 86.0591 93.8610  10
   1   9   2 83.9843 97.1807  17
   1   9   3 988.731 193.627  17
   1   9   3 862.123 192.054   6
   1   9   3 1017.56 209.080  10
   1   9   3 1164.40 229.209   9
   1   9   4 5.76991 76.9668  10
   1   9   4 64.5942 94.2269   6
   1   9   4 151.832 126.424   9
   1   9   5 498.070 145.406  10
   1   9   5 511.586 137.539   6
   1   9   5 734.986 161.364   9
   1   9   6 1647.61 200.877   6
   1   9   6 1586.89 195.760  10
   1   9   7 95.0049 63.1859   6
   1  10 -11 115.037 78.6157   4
   1  10 -11 41.5629 46.9115  14
   1  10 -10 857.170 162.759   4
   1  10  -9 122.240 97.7715   4
   1  10  -8 469.464 155.955   4
   1  10  -8 29.1975 65.3354  13
   1  10  -7-28.9520 85.2139  13
   1  10  -7-297.271 145.965   4
   1  10  -6 86.2224 114.958   4
   1  10  -6 226.855 112.523  13
   1  10  -5 2232.07 303.355   4
   1  10  -5 3040.74 320.588  10
   1  10  -5 2779.83 356.738  13
   1  10  -4 3792.31 358.513  10
   1  10  -4 3103.07 386.837  13
   1  10  -3 1176.83 210.613  10
   1  10  -3 545.435 214.832  13
   1  10  -2 980.957 193.720  10
   1  10  -2 481.421 180.087  13
   1  10  -1 248.658 107.802  17
   1  10  -1 396.190 159.535  13
   1  10  -1 259.591 184.237   9
   1  10  -1 373.038 139.102  10
   1  10   0 82.2190 96.9301  17
   1  10   0 126.046 96.5556  10
   1  10   0 186.874 126.639  13
   1  10   0 18.6550 144.846   9
   1  10   1 3633.17 354.169  10
   1  10   1 2924.46 379.699   9
   1  10   1 3318.29 331.030  17
   1  10   2 257.854 117.630  10
   1  10   2 225.301 143.632   9
   1  10   3 857.719 173.119   6
   1  10   3 907.721 177.832  10
   1  10   3 895.837 197.368   9
   1  10   4 366.917 111.748  10
   1  10   4 210.147 102.670   6
   1  10   4 307.981 123.263   9
   1  10   5 156.368 62.1044  10
   1  11 -10 270.339 88.8398  14
   1  11 -10 638.704 127.134   4
   1  11  -9 41.0545 61.7044   4
   1  11  -8 115.476 79.9190   4
   1  11  -8 2.64696 78.6255  13
   1  11  -7-72.8199 100.515  13
   1  11  -7 112.998 71.7618   4
   1  11  -6 184.711 101.512  13
   1  11  -5 1042.45 186.089  10
   1  11  -5 362.893 148.051  13
   1  11  -4-70.7462 104.126  10
   1  11  -4-53.4651 125.319  13
   1  11  -3 51.3885 117.217  13
   1  11  -3 36.0565 67.5278  10
   1  11  -2-4.46091 110.905  13
   1  11  -2 248.920 124.037  10
   1  11  -1 371.639 130.931  10
   1  11  -1 219.362 122.495  13
   1  11   0 286.239 110.336  13
   1  11   0 364.191 125.149  10
   1  11   1 128.409 101.615  10
   1  11   1-103.935 79.5218  13
   1  11   2 403.153 116.699  10
   1  11   3 161.694 79.0887  10
   1  12  -9-29.7952 48.8832  14
   1  12  -8 115.535 71.2857   8
   1  12  -8 86.4384 61.6831  14
   1  12  -7 33.5829 55.0266  13
   1  12  -7-8.51943 67.1996   8
   1  12  -7 19.7756 64.8011  14
   1  12  -6 82.8117 58.6568   8
   1  12  -6 17.7830 71.6599  13
   1  12  -6 16.9658 64.2270  14
   1  12  -5-71.5826 93.5506  13
   1  12  -5 127.523 79.4693  14
   1  12  -4 62.4105 77.2522  13
   1  12  -4 6.75390 63.1401  14
   1  12  -3 72.5562 85.3189  10
   1  12  -3-132.526 99.2785  13
   1  12  -2 388.611 109.761  10
   1  12  -2 24.3868 74.4825  13
   1  12  -1 5.41167 75.8522  13
   1  12  -1-12.2488 59.9999  10
   1  12   0-96.3326 70.1981  10
   1  12   0 86.4699 59.7452  13
   1  12   1 59.3961 73.0427  18
   1  13  -4 5.61751 54.2088  13
  -2  13  -1 16.4790 55.8431  13
  -2  13  -2 580.289 124.322  13
  -2  13  -3-35.5217 72.0058  13
  -2  13  -4 43.6543 66.9275  13
  -2  13  -5 188.173 83.6625  14
  -2  13  -5 224.149 98.2511  13
  -2  13  -6 142.341 58.2967  14
  -2  12   3-32.7032 60.0002  18
  -2  12   3 107.861 81.6791   9
  -2  12   2 131.233 97.3715   9
  -2  12   2 78.2097 78.2441  18
  -2  12   1-15.5069 58.7905  13
  -2  12   1 30.7338 82.4884  18
  -2  12   0 1097.46 185.931  18
  -2  12   0 1032.98 188.013  13
  -2  12   0 1148.95 208.162   9
  -2  12  -1-16.4327 93.2267  18
  -2  12  -1-7.81203 89.3782  13
  -2  12  -2 35.6351 66.0658  14
  -2  12  -2 28.2325 61.9898  18
  -2  12  -2 132.935 117.819  13
  -2  12  -3 44.8485 68.2343  14
  -2  12  -3-7.81535 94.6643  13
  -2  12  -4 131.300 99.0753  14
  -2  12  -4 38.9302 93.9397  13
  -2  12  -5 694.016 148.424   8
  -2  12  -5 604.002 160.777  14
  -2  12  -5 1094.46 197.166  13
  -2  12  -6 5.65383 73.6213   8
  -2  12  -6 87.8438 97.7514  14
  -2  12  -6-132.235 93.7170  13
  -2  12  -7 51.8379 74.9184  14
  -2  12  -7 149.073 77.0017  13
  -2  12  -7-24.8307 65.4054   8
  -2  12  -8 71.8086 74.6466   8
  -2  12  -8 184.126 78.5832  14
  -2  12  -9 69.2401 57.3383   8
  -2  11   5 264.695 100.590   9
  -2  11   5-20.3473 56.6734  18
  -2  11   4 353.282 137.769   9
  -2  11   4 232.153 99.9407  18
  -2  11   3 2774.29 309.650   9
  -2  11   3 2226.82 279.519  18
  -2  11   2 573.375 166.209  18
  -2  11   2 666.453 172.984   9
  -2  11   2 425.290 118.889  13
  -2  11   1 5149.87 418.109  13
  -2  11   1 5622.03 458.196   9
  -2  11   1 5977.70 494.348  18
  -2  11   0 128.244 112.046  18
  -2  11   0-16.7896 107.966   9
  -2  11   0 127.300 114.045  13
  -2  11  -1 4201.81 397.509  18
  -2  11  -1 3504.39 413.609  13
  -2  11  -1 3761.64 371.965   9
  -2  11  -1 2729.72 292.279  14
  -2  11  -2 154.871 85.1123  18
  -2  11  -2 58.8495 116.424  13
  -2  11  -2 167.679 137.510   9
  -2  11  -2 235.954 127.975  14
  -2  11  -3 2904.66 391.761  13
  -2  11  -3 2201.28 292.967  14
  -2  11  -4 1392.67 273.695  13
  -2  11  -4 988.321 205.615   8
  -2  11  -4 1299.02 243.458  14
  -2  11  -5 1078.14 222.917  14
  -2  11  -5 862.837 189.880   8
  -2  11  -5 1026.97 213.268  13
  -2  11  -6 197.176 121.960   8
  -2  11  -6 312.052 134.921  13
  -2  11  -6 482.178 157.962  14
  -2  11  -7 73.8525 86.9278  14
  -2  11  -7-81.4181 88.7601  13
  -2  11  -7 121.090 112.135   8
  -2  11  -8 1557.28 211.353  14
  -2  11  -8 1206.04 220.147   8
  -2  11  -9 78.9418 75.4923  14
  -2  11  -9 25.2158 77.6581   8
   2 -11  10-56.1225 54.4867   5
  -2  11 -10 71.6912 57.9804   8
  -2  10   6 1265.87 192.516   9
  -2  10   6 595.162 124.314  18
  -2  10   5 327.731 115.993  18
  -2  10   5 226.677 115.145   9
  -2  10   4 36.3148 94.4431   9
  -2  10   4 116.780 126.360  18
  -2  10   3 4429.96 434.150   9
  -2  10   3 4646.40 449.307  18
  -2  10   2 848.314 179.240  13
  -2  10   2 651.465 170.522  18
  -2  10   2 1049.11 231.909   9
  -2  10   1 199.939 124.992  13
  -2  10   1 226.276 135.133   9
  -2  10   1 320.362 153.011  18
  -2  10   0 11603.6 584.078  14
  -2  10   0 12577.7 693.825   9
  -2  10   0 13436.5 797.586  13
  -2  10  -1 1422.61 244.936  18
  -2  10  -1 1261.79 268.839  13
  -2  10  -1 1249.04 210.521  14
  -2  10  -1 1552.65 255.058   9
  -2  10  -2 248.187 120.903  14
  -2  10  -2 459.333 184.518  13
  -2  10  -2 441.583 152.258   9
  -2  10  -2 493.110 150.330  18
  -2  10  -3 1119.45 194.658  18
  -2  10  -3 909.284 199.408   9
  -2  10  -3 898.615 198.527  14
  -2  10  -3 928.265 200.766   8
  -2  10  -3 1158.37 270.912  13
  -2  10  -4 1328.07 259.502  14
  -2  10  -4 1044.43 231.374   8
  -2  10  -4 1427.43 288.791  13
  -2  10  -5 3019.08 386.842  14
  -2  10  -5 2455.88 350.901   8
  -2  10  -5 3375.53 382.864  13
  -2  10  -6 1954.05 315.411   8
  -2  10  -6 2454.64 322.343  14
  -2  10  -6 1782.84 257.049  13
  -2  10  -7 19.4967 73.5859  13
  -2  10  -7 88.1719 119.182   8
  -2  10  -7-89.8491 105.983  14
  -2  10  -8 174.043 91.2474  14
  -2  10  -8 143.170 107.340   8
  -2  10  -9 77.2858 69.0115  14
  -2  10  -9 132.864 100.143   8
  -2  10 -10 818.002 163.902   8
  -2  10 -10 815.456 133.899  14
  -2  10 -11 23.9053 44.4140   8
   2 -10  11 147.022 64.7159   5
  -2   9   8 101.407 69.7301   9
  -2   9   7-31.1931 60.8525   6
  -2   9   7-31.5308 78.3484   9
  -2   9   7 46.2703 60.4022  18
  -2   9   6 2465.23 303.558   9
  -2   9   6 1974.91 241.008   6
  -2   9   6 1483.19 231.989  18
  -2   9   5 191.331 108.333  18
  -2   9   5 432.129 139.997   6
  -2   9   5 647.029 177.611   9
  -2   9   4 995.680 227.176   9
  -2   9   4 905.640 225.532  18
  -2   9   3 328.401 133.918   9
  -2   9   2 4153.68 411.304   9
  -2   9   2 3818.52 379.881  13
  -2   9   1 2322.35 293.859   9
  -2   9   1 2324.97 327.768  13
  -2   9   0 4503.42 452.001  13
  -2   9   0 4273.10 386.308   9
  -2   9   0 3856.11 345.303  14
  -2   9  -1 13934.0 731.467  18
  -2   9  -1 14725.6 834.737  13
  -2   9  -1 14338.2 684.944   9
  -2   9  -1 14281.2 703.154  14
  -2   9  -2 8625.03 524.731   9
  -2   9  -2 10009.0 721.880  13
  -2   9  -2 9661.11 575.832  18
  -2   9  -2 9182.87 603.700  14
  -2   9  -2 8682.64 559.363   8
  -2   9  -3 4283.79 361.901  18
  -2   9  -3 3972.84 364.671   9
  -2   9  -3 4011.74 418.184   8
  -2   9  -3 4417.19 447.620  14
  -2   9  -3 4657.19 471.077  13
  -2   9  -4 23190.2 1051.75  14
  -2   9  -4 23493.0 1030.47   8
  -2   9  -4 24285.8 1035.38  13
  -2   9  -5 2362.27 352.197   8
  -2   9  -5 1904.38 292.165  13
  -2   9  -5 2290.30 336.904  14
  -2   9  -6 12607.9 796.508   8
  -2   9  -6 13203.4 662.636  13
  -2   9  -6 11664.2 678.167   4
  -2   9  -6 12615.5 735.144  14
  -2   9  -7 425.641 156.026   4
  -2   9  -7 509.816 188.852   8
  -2   9  -7 502.338 156.818  14
  -2   9  -7 296.898 116.764  13
  -2   9  -8-15.5544 91.2055   4
  -2   9  -8 85.1540 121.596   8
  -2   9  -8 93.1729 86.9283  14
  -2   9  -9-40.5727 102.527   4
  -2   9  -9 54.4675 89.6242   8
  -2   9  -9 98.5578 80.4059  14
  -2   9 -10 39.4062 71.1554   8
   2  -9  10 28.2778 70.8532   5
  -2   9 -11 0.16925 57.2193   8
   2  -9  11 8.33933 55.1163   5
   2  -9  12 654.827 102.189   5
  -2   8   9 56.1157 69.6234   9
  -2   8   8 1135.27 187.058   9
  -2   8   8 710.555 145.329   6
  -2   8   7 1071.04 207.993   9
  -2   8   7 821.690 165.625  18
  -2   8   7 1134.66 197.967   6
  -2   8   6 751.002 175.108   6
  -2   8   6 939.393 217.804   9
  -2   8   6 483.889 159.419  18
  -2   8   5 1619.70 239.096   6
  -2   8   5 1924.03 301.100   9
  -2   8   5 1416.25 262.188  18
  -2   8   4 2095.75 265.078   6
  -2   8   4 2388.36 375.235  16
  -2   8   4 2075.47 297.512   9
  -2   8   3 642.903 186.797   9
  -2   8   3 694.894 242.496  16
  -2   8   3 686.308 167.888  13
  -2   8   2 24366.4 1159.74  11
  -2   8   2 25817.3 1014.06  16
  -2   8   2 24885.8 928.114   9
  -2   8   2 25957.2 922.311  13
  -2   8   1 78829.2 1564.30   9
  -2   8   1 73861.8 1348.38  14
  -2   8   1 79939.5 1713.19  13
  -2   8   1 76911.3 1989.55  11
  -2   8   1 78526.6 1680.43  16
  -2   8   0 82.8600 94.2992  13
  -2   8   0 172.464 121.989   9
  -2   8   0 194.674 96.3659  14
  -2   8   0 286.482 166.455  11
  -2   8  -1 42920.2 1089.76   9
  -2   8  -1 41525.8 1095.24   8
  -2   8  -1 40799.4 1359.44  13
  -2   8  -1 43396.3 1189.56  14
  -2   8  -1 41942.4 1379.43  11
  -2   8  -2 10370.6 675.336  11
  -2   8  -2 11897.4 741.097  13
  -2   8  -2 9918.49 593.947   8
  -2   8  -2 9102.81 502.329   9
  -2   8  -2 10977.1 647.446  14
  -2   8  -2 11608.0 568.946  18
  -2   8  -3 3724.43 398.384  14
  -2   8  -3 4133.10 333.466   9
  -2   8  -3 3458.65 397.560  13
  -2   8  -3 4116.35 329.214  18
  -2   8  -4 697.956 208.152  14
  -2   8  -4 1474.68 240.608  13
  -2   8  -5 34949.1 1151.07   4
  -2   8  -5 38648.8 1283.52  14
  -2   8  -5 37043.0 1106.37  13
  -2   8  -6 12378.9 625.802  13
  -2   8  -6 12700.7 731.792   4
  -2   8  -6 13372.5 721.884  14
  -2   8  -7 307.866 153.569   4
  -2   8  -7 183.465 113.955  14
   2  -8   7 501.578 411.177   3
  -2   8  -8 1007.57 213.661  12
  -2   8  -8 898.416 189.634  14
  -2   8  -8 1096.37 222.646   8
  -2   8  -8 1120.19 239.332   4
  -2   8  -9 1843.80 276.065  12
  -2   8  -9 1312.41 190.065  14
  -2   8  -9 1592.54 253.108   8
  -2   8  -9 1730.72 273.693   4
  -2   8 -10-21.3973 79.8555  12
   2  -8  10 86.2675 82.2271   5
  -2   8 -10 102.622 82.6345   8
  -2   8 -11 186.866 87.3958  12
   2  -8  11 253.614 101.781   5
  -2   8 -11 268.877 95.3507   8
  -2   8 -12 333.179 103.789  12
   2  -8  12 331.615 87.7682   5
  -2   7  10-95.6749 69.8996   6
  -2   7  10 138.196 73.9331   9
  -2   7   9 101.167 76.5419   6
  -2   7   9 101.177 80.5021   9
  -2   7   8 24.1865 77.9501   6
  -2   7   8 56.0963 93.0137   9
  -2   7   7-92.5863 103.245  18
  -2   7   7 135.245 94.8655   6
  -2   7   7 6.54166 108.128   9
  -2   7   6 1886.39 276.542  18
  -2   7   6 2495.90 302.771   6
  -2   7   6 2546.89 332.480   9
  -2   7   6 2731.63 381.299  16
  -2   7   5 1867.77 257.507   6
  -2   7   5 2045.75 327.193  16
  -2   7   5 2943.45 1050.17   2
  -2   7   5 1879.02 292.176   9
  -2   7   4 10683.7 557.205   6
  -2   7   4 10985.9 650.973   9
  -2   7   4 11622.0 793.004  11
  -2   7   4 11123.1 696.000  16
  -2   7   4 8749.74 1753.51   2
  -2   7   3 4300.52 486.160  11
  -2   7   3 3791.88 305.415   6
  -2   7   3 3665.18 1093.39   2
  -2   7   3 4103.63 376.330   9
  -2   7   3 3952.28 327.376  13
  -2   7   3 4042.98 422.051  16
  -2   7   2 446.830 244.025  11
  -2   7   2 275.822 95.5285   9
  -2   7   2 402.853 142.682  16
  -2   7   2 269.119 106.563  13
  -2   7   1 14207.9 672.710  16
  -2   7   1 14808.5 817.682  11
  -2   7   1 15012.3 694.565  13
  -2   7   1 14402.6 620.041   9
  -2   7   1 13872.6 550.976  14
  -2   7   1 15332.8 2073.75   2
  -2   7   0 22592.1 749.210  14
  -2   7   0 22433.5 788.662  16
  -2   7   0 23673.8 993.594  11
  -2   7   0 23227.9 748.785   9
  -2   7   0 21995.1 884.544  13
  -2   7  -1-152.869 113.796   9
  -2   7  -1 66.7632 66.9020  14
  -2   7  -1 324.964 118.319   8
  -2   7  -1 151.398 145.736  11
  -2   7  -1 69.6207 101.103  13
  -2   7  -2 37158.9 913.997  18
  -2   7  -2 37518.8 1118.62  14
  -2   7  -2 36951.9 1159.83  13
  -2   7  -3 215.838 91.3450  18
  -2   7  -3 69.3891 90.8591   9
  -2   7  -3-45.4647 83.2817  14
  -2   7  -3-138.827 121.253  13
  -2   7  -4 1395.48 217.167  13
  -2   7  -4 1239.83 213.777   4
  -2   7  -5 72600.4 1633.76  14
  -2   7  -5 70223.1 1373.51  13
  -2   7  -5 71112.1 1562.41   4
   2  -7   6 4811.97 1274.32   1
  -2   7  -6 4200.45 335.962  13
  -2   7  -6 4041.71 394.596   4
  -2   7  -6 3927.51 383.871  12
  -2   7  -6 4610.11 397.911  14
   2  -7   7 25505.2 3025.14   3
  -2   7  -7 23526.4 962.305  12
  -2   7  -7 24089.6 955.712   4
  -2   7  -7 21492.1 813.634  14
  -2   7  -8-32.7726 129.770  12
  -2   7  -8 344.844 160.698   4
  -2   7  -8 102.717 83.8322   8
  -2   7  -8 172.917 82.3083  14
  -2   7  -9-5.01810 99.9834   4
  -2   7  -9-3.15783 108.052  12
  -2   7  -9 126.425 95.1276   8
  -2   7 -10 1004.77 187.345   8
   2  -7  10 1248.24 214.819   5
  -2   7 -10 1370.55 244.068  12
  -2   7 -11 1355.08 227.721  12
   2  -7  11 1531.03 201.165   5
  -2   7 -11 1109.89 175.553   8
  -2   7 -12 1067.83 184.982  12
   2  -7  12 901.713 135.155   5
   2  -7  13-8.24809 35.2708   5
  -2   7 -13-76.1567 65.0695  12
  -2   6  11 21.0984 58.5187   6
  -2   6  10 25.5839 69.7758   6
  -2   6  10 224.278 102.428   9
  -2   6   9 442.635 137.322   6
  -2   6   9 492.891 151.985   9
  -2   6   8 125.317 117.845   9
  -2   6   8 67.2368 108.957   6
  -2   6   8 142.264 93.3572  10
  -2   6   8-92.2083 179.517  16
  -2   6   7 416.759 119.008  18
  -2   6   7 702.654 183.984   6
  -2   6   7 478.353 135.234  10
  -2   6   7 691.471 186.602   9
  -2   6   7 651.145 223.014  16
  -2   6   6 17673.3 790.923   6
  -2   6   6 16027.5 693.683  10
  -2   6   6 16894.9 831.540   9
  -2   6   6 14603.1 683.374  18
  -2   6   6 16528.7 848.848  16
  -2   6   6 13909.6 2391.67   2
  -2   6   5 7582.43 566.472  16
  -2   6   5 6810.50 465.603   6
  -2   6   5 7273.57 1623.03   2
  -2   6   5 7425.68 529.976   9
  -2   6   5 6966.28 597.285  11
  -2   6   4 5868.55 393.107   6
  -2   6   4 5823.37 441.927   9
  -2   6   4 5891.24 479.123  16
  -2   6   4 6474.92 1436.82   2
  -2   6   4 6218.55 552.555  11
  -2   6   3 1546.75 182.102   6
  -2   6   3 1731.49 304.415  11
  -2   6   3 1797.55 687.763   2
  -2   6   3 1565.63 250.381  16
  -2   6   3 1577.12 225.672   9
  -2   6   3 1740.67 210.782  13
  -2   6   2 507.192 162.557  16
  -2   6   2 465.692 115.768   9
  -2   6   2 285.385 213.721   2
  -2   6   2 395.989 173.108  11
  -2   6   2 463.378 103.642  13
  -2   6   1 16038.3 595.903   9
  -2   6   1 16294.3 654.677  16
  -2   6   1 16840.0 1950.23   2
  -2   6   1 16095.3 653.740  13
  -2   6   1 16126.2 761.761  11
  -2   6   0 22001.7 790.917  13
  -2   6   0 22171.3 858.768  11
  -2   6   0 22750.8 2230.48   2
   2  -6   1 1792.09 497.147   1
  -2   6  -1 1931.42 249.947  13
  -2   6  -1 1853.07 215.646  14
   2  -6   2-15.9633 176.279   1
  -2   6  -2 314.233 129.456  13
  -2   6  -2 235.141 112.960  14
   2  -6   3 76525.6 3599.76   1
  -2   6  -3 74670.6 1370.34  13
  -2   6  -4 3756.40 326.131   4
  -2   6  -4 4132.21 317.137  13
   2  -6   4 4958.37 1001.34   1
  -2   6  -5 15176.0 677.769  12
  -2   6  -5 17160.6 709.337  14
  -2   6  -5 15543.8 684.461   4
  -2   6  -5 15182.3 585.957  13
  -2   6  -6 22093.1 891.114  12
  -2   6  -6 23056.4 875.398   4
  -2   6  -6 24639.5 823.491  14
  -2   6  -7 1022.08 223.026  12
  -2   6  -7 1203.74 233.035   4
  -2   6  -7 858.018 146.112  14
   2  -6   7 1655.86 730.702   3
  -2   6  -8 766.080 204.586  12
  -2   6  -8 759.682 182.687   4
  -2   6  -8 726.537 132.096  14
   2  -6   8 1076.38 600.064   3
  -2   6  -8 666.258 157.184   8
  -2   6  -9 11493.0 673.434  12
   2  -6   9 10334.3 1957.89   3
  -2   6  -9 9785.31 555.022   8
  -2   6  -9 11731.4 662.404   4
   2  -6  10 2371.57 283.965   5
  -2   6 -10 2864.33 345.833  12
  -2   6 -10 2146.69 253.128   8
  -2   6 -11 550.783 163.094  12
   2  -6  11 561.752 133.152   5
   2  -6  12 321.583 99.3782   5
  -2   6 -12 190.816 105.484  12
  -2   6 -13 158.074 69.2674  12
   2  -6  13 69.5818 58.2931   5
  -2   5  11-32.0070 67.9982   9
  -2   5  11-99.2322 77.7771   6
  -2   5  10-13.9835 87.1269   6
  -2   5  10-81.8900 89.0383  10
  -2   5  10-91.9599 78.6633   9
  -2   5   9-3.27750 135.263  16
  -2   5   9 45.8816 69.0591  10
  -2   5   9-25.8758 113.304   9
  -2   5   9 44.1710 87.2770   6
  -2   5   8 61.7592 160.983  16
  -2   5   8 239.589 132.805   6
  -2   5   8 187.222 125.847   9
  -2   5   8 53.8697 82.4891  10
  -2   5   7 321.293 142.614   6
  -2   5   7 286.024 119.179  10
  -2   5   7-3.32758 520.102   2
  -2   5   7 507.664 159.171   9
  -2   5   7 137.031 76.2489  18
  -2   5   7 360.394 193.571  16
  -2   5   6 966.409 234.044  11
  -2   5   6 1370.78 246.234  16
  -2   5   6 1295.01 209.614   6
  -2   5   6 1273.88 212.439   9
  -2   5   6 1708.70 784.428   2
  -2   5   6 962.799 166.959  10
  -2   5   5 7314.76 569.496  11
  -2   5   5 7732.57 479.221   6
  -2   5   5 7796.55 515.105   9
  -2   5   5 7876.66 535.431  16
  -2   5   5 7511.66 1577.64   2
  -2   5   4 393.817 130.497   9
  -2   5   4 352.838 161.600  11
  -2   5   4 308.223 113.967  16
  -2   5   4 121.205 152.459   2
  -2   5   4 458.641 116.568   6
  -2   5   3 466.196 154.487  11
  -2   5   3 378.628 230.672   2
  -2   5   3 565.388 169.900  16
  -2   5   3 541.068 132.006   9
  -2   5   2 40117.6 2854.36   2
  -2   5   1 2727.36 724.978   2
   2  -5  -1 2530.65 460.817   1
   2  -5   0 37984.5 1793.15   1
  -2   5   0 36843.5 2530.68   2
   2  -5   1 1072.32 326.304   1
   2  -5   2 378.248 266.983   1
   2  -5   3 152723. 4826.78   1
   2  -5   4 88434.3 4232.27   1
  -2   5  -5 17150.9 706.557  12
  -2   5  -5 16842.3 683.194   4
  -2   5  -6 22625.3 887.204  12
   2  -5   6 26430.0 2747.32   3
  -2   5  -6 24595.2 755.606  14
  -2   5  -6 24566.0 854.936   4
  -2   5  -7 22437.2 918.849  12
   2  -5   7 23484.2 2698.78   3
  -2   5  -7 22378.5 842.020   4
  -2   5  -7 22434.9 693.177  14
  -2   5  -8 12877.8 617.332   8
  -2   5  -8 13189.5 683.026   4
  -2   5  -8 14371.5 741.483  12
   2  -5   8 13608.3 2128.74   3
  -2   5  -9 1480.35 241.671   4
  -2   5  -9 1337.92 197.570   8
   2  -5   9 1512.19 238.385   5
  -2   5  -9 1772.41 284.403  12
   2  -5   9 1039.82 590.405   3
  -2   5 -10 1532.92 253.278  12
   2  -5  10 1167.65 194.725   5
  -2   5 -11 1786.88 269.675  12
   2  -5  11 1859.33 223.534   5
   2  -5  12 3047.06 265.274   5
  -2   5 -12 3672.75 344.992  12
   2  -5  13 506.017 96.5304   5
  -2   5 -13 562.376 137.373  12
  -2   4  12-114.235 75.2064   6
  -2   4  12-46.9309 45.2726   9
  -2   4  11-9.87114 74.3848   6
  -2   4  11 66.9245 68.2686  10
  -2   4  11-94.8737 99.9349   9
  -2   4  10 2061.32 255.425  10
  -2   4  10 2850.52 325.364   9
  -2   4  10 2137.00 271.856  16
  -2   4  10 2714.80 324.362   6
  -2   4   9 579.734 172.833   6
  -2   4   9 496.569 179.302  16
  -2   4   9 576.448 154.697  10
  -2   4   9 532.074 172.943   9
  -2   4   8 9652.77 608.779   9
  -2   4   8 7748.24 1830.90   2
  -2   4   8 9225.13 589.983  16
  -2   4   8 9645.65 567.261  10
  -2   4   8 9528.72 599.823   6
  -2   4   7 720.810 194.656  16
  -2   4   7 926.197 187.000  10
  -2   4   7 686.778 175.514   6
  -2   4   7 611.850 373.817   2
  -2   4   7 707.489 178.504   9
  -2   4   6 158.175 119.407  11
  -2   4   6 77.2626 95.6371   9
  -2   4   6 41.9501 83.5476   6
  -2   4   6 116.603 100.573  10
  -2   4   6-69.8147 301.440   2
  -2   4   6 29.3139 84.0680  18
  -2   4   6 57.3562 98.0620  16
  -2   4   5 28708.1 851.273   6
  -2   4   5 27990.8 904.992   9
  -2   4   5 27514.6 2819.01   2
  -2   4   5 27745.8 986.653  11
  -2   4   4 945.776 175.409  11
  -2   4   4 936.103 394.646   2
  -2   4   4 1081.12 172.196   9
  -2   4   3 108308. 4597.48   2
   2  -4  -3 115249. 3400.33   1
   2  -4  -2 40147.1 1662.53   1
  -2   4   2 39938.9 2544.74   2
  -2   4   1 19489.2 1705.54   2
   2  -4  -1 18233.9 978.097   1
   2  -4   0 17356.9 978.397   1
  -2   4   0 16408.1 1512.96   2
   2  -4   1 324341. 4881.17   1
  -2   4  -1 326930. 6763.54   2
   2  -4   2 81221.9 2935.82   1
   2  -4   3 2454.08 608.816   1
   2  -4   4 3021.25 778.429   1
  -2   4  -5 26217.2 809.072   4
   2  -4   5 27321.2 2546.98   3
  -2   4  -6 8036.00 505.740  12
   2  -4   6 8598.14 1525.72   3
  -2   4  -6 8590.20 483.816   4
   2  -4   7 21801.5 2470.68   3
  -2   4  -7 20517.5 780.673   4
  -2   4  -7 20111.5 830.119  12
  -2   4  -7 19643.5 719.767   8
  -2   4  -8 1717.20 264.555  12
  -2   4  -8 1298.80 188.970   8
  -2   4  -8 1441.32 231.292   4
   2  -4   8 1391.44 217.225   5
   2  -4   8 924.315 663.417   3
  -2   4  -9 2342.62 324.987  12
   2  -4   9 2457.37 278.568   5
  -2   4 -10 7082.61 527.007  12
   2  -4  10 6320.17 434.023   5
  -2   4 -11 594.108 178.692  12
   2  -4  11 546.033 135.085   5
  -2   4 -12-41.0487 83.1393  12
   2  -4  12-4.10935 55.0656   5
   2  -4  13-67.1081 57.7876  10
   2  -4  13-5.23097 41.9881   5
  -2   3  13-23.1328 50.8789   6
  -2   3  12 85.5639 67.4176   9
  -2   3  12 63.6174 67.6149   6
  -2   3  12 41.6898 59.1269  10
  -2   3  11 658.863 165.550   6
  -2   3  11 467.880 128.443  10
  -2   3  11 652.666 160.898   9
  -2   3  10-27.4427 104.365   6
  -2   3  10 99.4712 95.4535  10
  -2   3  10 19.5653 83.6272   9
  -2   3   9 2837.17 1134.47   2
  -2   3   9 1855.32 280.341   9
  -2   3   9 1764.22 248.791  16
  -2   3   9 1887.60 278.665   6
  -2   3   8 362.391 149.506  16
  -2   3   8 325.326 130.256   9
  -2   3   8 565.745 613.465   2
  -2   3   8 352.832 128.465   6
  -2   3   8 198.563 149.600   7
  -2   3   7 835.953 172.800   6
  -2   3   7 982.337 198.311  11
  -2   3   7 674.557 184.630   7
  -2   3   7 370.041 386.639   2
  -2   3   7 974.808 182.153   9
  -2   3   7 1145.61 212.347  16
  -2   3   6 11998.6 559.257   6
  -2   3   6 12473.5 2001.50   2
  -2   3   6 12796.4 608.615   9
  -2   3   6 11426.5 560.444   7
  -2   3   6 10678.8 587.034  11
  -2   3   5 16806.0 651.434   9
  -2   3   5 16596.2 2112.36   2
  -2   3   4 1171.07 538.279   2
  -2   3   3-76.6289 241.072   2
  -2   3   2 126433. 4187.11   2
   2  -3  -2 119530. 2267.61   1
  -2   3   1 242563. 5324.05   2
   2  -3  -1 200169. 2047.77   1
  -2   3   0 96834.2 3253.09   2
   2  -3   0 90939.3 1537.57   1
   2  -3   1 11132.0 823.427   1
  -2   3  -1 10289.7 1079.90   2
   2  -3   2 202056. 4607.02   1
   2  -3   3 11927.6 1365.98   3
   2  -3   4 54756.6 3208.50   3
   2  -3   5 128948. 5226.28   3
  -2   3  -6 7853.93 483.819  12
  -2   3  -6 7679.38 456.594   4
   2  -3   6 8103.96 1428.79   3
   2  -3   7 137.736 81.9748   5
  -2   3  -7 95.4182 102.429   4
  -2   3  -7 147.150 107.148  12
   2  -3   8 289.889 98.5115   5
   2  -3   8 241.373 350.094   3
  -2   3  -8 112.726 101.354  12
  -2   3  -9 10929.6 637.831  12
   2  -3   9 9791.70 539.648   5
  -2   3 -10 2044.66 286.193  12
   2  -3  10 1992.99 250.939   5
   2  -3  11 456.449 125.490   5
  -2   3 -11 356.333 151.102  12
   2  -3  12 3455.55 286.771   5
  -2   3 -12 3343.20 322.072  12
   2  -3  13 357.151 83.7899   5
   2  -3  13 365.970 91.9653  10
  -2   3 -13 441.417 110.701  12
  -2   2  13-10.3221 59.8048   6
  -2   2  13 21.4730 42.2374  10
  -2   2  12 17.5283 69.9052   6
  -2   2  12 63.0046 71.3830  10
  -2   2  12-42.6446 75.6442   9
  -2   2  11 134.418 99.3957   9
  -2   2  11 21.9480 84.0593   6
  -2   2  11 71.2611 87.1102  10
  -2   2  10 1116.35 227.763   6
  -2   2  10 1126.74 206.904   9
  -2   2   9 17171.5 779.642   6
  -2   2   9 16431.8 772.907   9
  -2   2   9 16351.5 707.327  16
  -2   2   9 14632.6 759.989   7
  -2   2   8 2988.37 324.587   6
  -2   2   8 2575.06 1002.55   2
  -2   2   8 2705.92 322.979   7
  -2   2   8 3023.44 326.969   9
  -2   2   7 20673.6 766.106   6
  -2   2   7 21430.9 827.771   7
  -2   2   7 20792.8 813.988   9
  -2   2   7 20030.5 2696.23   2
  -2   2   6 16541.6 2273.89   2
  -2   2   6 17683.8 698.400   9
  -2   2   6 17127.4 654.674   7
  -2   2   6 17490.7 645.538   6
  -2   2   5 16246.0 2042.10   2
  -2   2   4 13358.1 1676.48   2
  -2   2   3 839.789 363.362   2
  -2   2   2 33836.1 2014.16   2
  -2   2   1 16262.0 1236.08   2
   2  -2  -1 18266.0 882.016   3
  -2   2   0 8419.59 859.935   2
   2  -2   0 8819.60 794.309   3
   2  -2   1 303210. 5376.24   3
  -2   2  -1 301139. 5249.84   2
   2  -2   2 3657.05 652.017   3
   2  -2   3 652802. 9711.32   3
   2  -2   4 3648.72 818.473   3
   2  -2   5 13657.7 1656.29   3
   2  -2   6 1718.62 199.211   5
   2  -2   6 1461.38 627.623   3
  -2   2  -6 1390.52 209.287  12
  -2   2  -7 165.304 109.797  12
   2  -2   7 103.630 80.3726   5
   2  -2   7-182.334 353.196   3
   2  -2   8 18072.1 2244.76   3
  -2   2  -8 20775.5 844.288  12
   2  -2   8 20641.1 751.721   5
  -2   2  -9 632.130 161.429  12
   2  -2   9 1379.47 732.588   2
   2  -2   9 1181.31 198.821   5
   2  -2   9 852.534 513.963   3
   2  -2  10 1821.67 240.366   5
  -2   2 -10 1545.62 254.408  12
  -2   2 -11 274.973 126.789  12
   2  -2  11 115.140 82.8387   5
   2  -2  12-68.3856 63.4453   5
  -2   2 -12 18.6340 83.6190  12
   2  -2  12-61.4021 78.8381  10
   2  -2  13 251.460 71.9786   5
   2  -2  13 210.547 76.7133  10
  -2   2 -13 229.873 68.1941  12
  -2   1  13 44.8214 49.3378  10
  -2   1  13-152.587 66.1817   9
  -2   1  13-46.4474 67.9893   6
  -2   1  12 71.4347 79.0899   6
  -2   1  12 77.9266 83.4131   9
  -2   1  11-20.7097 95.4480   6
  -2   1  11 146.370 90.2604   9
  -2   1  10 347.188 137.173   6
  -2   1  10 322.345 125.800   9
  -2   1  10 92.2334 584.982   2
  -2   1   9 136.251 117.024   6
  -2   1   9 51.4633 127.347   7
  -2   1   9 120.975 79.8896   9
  -2   1   8 11998.8 2273.61   2
  -2   1   8 14700.8 670.995   6
  -2   1   8 14216.4 695.800   9
  -2   1   8 14118.8 716.375   7
  -2   1   7 2012.03 252.552   9
  -2   1   7 1746.72 845.405   2
  -2   1   7 1613.26 243.328   7
  -2   1   6 5049.91 1262.83   2
  -2   1   6 6602.66 426.592   9
  -2   1   5 52509.1 3662.11   2
  -2   1   4 1262.50 547.981   2
  -2   1   3 33672.8 2222.52   2
   2  -1  -2 10380.2 455.711   3
  -2   1   2 11542.0 1109.65   2
   2  -1  -1 50731.0 1435.16   3
  -2   1   1 48454.1 1929.38   2
   2  -1   0 70727.2 2057.21   3
  -2   1   0 70902.1 2194.76   2
   2  -1   1 6258.50 719.828   3
   2  -1   2 17143.9 1357.91   3
   2  -1   3 28299.2 1926.23   3
   2  -1   4 22125.3 1893.18   3
   2  -1   5 190674. 5953.48   3
  -2   1  -6 4298.92 348.935  12
   2  -1   6 4226.14 306.764   5
   2  -1   6 3426.14 874.972   3
   2  -1   7 5741.46 382.931   5
   2  -1   7 5000.77 1134.79   3
  -2   1  -7 5980.95 434.704  12
  -2   1  -8 1296.12 230.268  12
   2  -1   8 559.302 388.961   3
   2  -1   8 1406.30 700.444   2
   2  -1   8 1322.92 202.394   5
   2  -1   9 11986.0 603.909   5
  -2   1  -9 11208.6 629.060  12
  -2   1 -10 210.037 119.116  12
   2  -1  10 208.142 96.8693   5
   2  -1  11 694.858 149.389   5
  -2   1 -11 531.806 145.482  12
  -2   1 -12 371.951 114.003  12
   2  -1  12 224.778 96.1792  10
   2  -1  12 164.480 62.8408   5
   2  -1  13-32.2171 48.9245  10
  -2   0  14-144.889 60.1437   6
  -2   0  13 60.3114 63.4270   6
  -2   0  13 83.2438 59.3280   9
  -2   0  12 267.059 104.377   9
  -2   0  12 60.7401 86.1225   6
   2   0 -11 3915.13 352.807  12
  -2   0  11 4244.86 375.685   9
  -2   0  11 4647.75 414.486   6
   2   0 -10-8.42053 89.0242  12
  -2   0  10 116.340 108.151   6
  -2   0  10-11.9424 148.397   7
  -2   0  10 65.0155 79.5560   9
  -2   0   9 7.48873 106.173   6
  -2   0   9-405.729 621.795   2
  -2   0   9 118.837 90.2842   9
   2   0  -9 29.8862 92.2680  12
  -2   0   9 73.7480 141.704   7
  -2   0   8 10679.4 619.835   7
  -2   0   8 9622.68 1952.51   2
   2   0  -8 9012.78 490.002  12
  -2   0   7 894.572 452.677   2
  -2   0   7 1446.83 232.482   7
   2   0  -7 786.910 134.667  12
  -2   0   6 108558. 5616.45   2
  -2   0   5 38619.3 3040.88   2
  -2   0   4 4771.85 823.720   1
  -2   0   4 3770.62 886.002   2
  -2   0   3 30920.3 2027.36   2
  -2   0   3 32256.8 1691.01   1
  -2   0   2 167771. 3065.82   1
  -2   0   2 163270. 3960.08   2
   2   0  -2 162478. 2677.92   3
   2   0  -1 6899.21 610.036   3
  -2   0   1 6989.03 557.268   1
  -2   0   1 7084.32 652.182   2
  -2   0   0 3584.46 415.463   2
   2   0   0 3187.23 473.833   3
   2   0   1 15407.8 1147.66   3
   2   0   2 135163. 3824.98   3
   2   0   3 91089.2 3484.12   3
   2   0   4 8913.94 1200.36   3
   2   0   5 18770.9 1901.13   3
  -2   0  -6 32672.0 950.403  12
   2   0   6 34929.0 2987.91   2
   2   0   6 30844.9 2654.81   3
   2   0   6 33227.8 859.277   5
  -2   0  -7 13715.2 645.199  12
   2   0   7 13578.6 573.453   6
   2   0   7 13198.2 1865.95   3
   2   0   7 13635.1 591.440   5
   2   0   8 34.1492 78.2765   5
   2   0   8 215.111 107.919   6
  -2   0  -8 282.301 135.434  12
   2   0   9 1735.67 217.479   6
   2   0   9 1841.42 244.420   5
  -2   0  -9 1792.64 255.313  12
  -2   0 -10 838.355 197.622  12
   2   0  10 711.700 154.578   6
   2   0  10 901.489 188.757  10
   2   0  10 914.078 172.144   5
   2   0  11 530.710 128.487   5
   2   0  11 766.640 161.344  10
  -2   0 -11 481.770 141.698  12
   2   0  12 147.190 70.2336   5
   2   0  12-49.5997 53.9474  10
  -2  -1  14-22.6992 54.0682   6
  -2  -1  14 118.507 74.9521  10
  -2  -1  13 236.111 109.506   6
  -2  -1  13 197.175 76.1169   9
   2   1 -12 145.728 115.130  12
  -2  -1  12 315.343 108.533   9
  -2  -1  12 163.668 98.2786   6
  -2  -1  11 1279.13 214.679   6
  -2  -1  11 967.772 199.084   9
   2   1 -11 983.093 188.335  12
  -2  -1  10 1840.05 954.084   2
  -2  -1  10 1980.84 281.692   6
   2   1 -10 1459.65 231.104  12
  -2  -1  10 1515.35 257.986   9
  -2  -1  10 1590.85 305.423   7
   2   1  -9 197.008 115.553  12
  -2  -1   9 299.905 614.781   2
  -2  -1   9 33.4598 125.236   7
   2   1  -8 2445.74 261.716  12
  -2  -1   8 2481.66 943.435   2
  -2  -1   8 2484.03 313.557   7
   2   1  -7 8565.39 474.472  12
  -2  -1   7 8199.08 1673.04   2
  -2  -1   7 9193.53 515.829   7
  -2  -1   6 1650.20 726.071   1
  -2  -1   6 739.356 603.562   2
  -2  -1   5 101149. 4148.42   1
  -2  -1   5 89149.0 4647.24   2
  -2  -1   4 17528.3 1852.68   2
  -2  -1   4 17567.7 1494.31   1
  -2  -1   3 170247. 3984.54   1
  -2  -1   3 159937. 4637.18   2
  -2  -1   2 5610.20 698.083   2
   2   1  -2 5069.94 607.215   3
  -2  -1   2 5175.23 656.666   1
  -2  -1   1 84909.8 1983.87   2
  -2  -1   1 82467.1 2458.98   1
   2   1   0 63202.7 2333.28   3
  -2  -1   0 58451.1 2149.07   1
   2   1   1-38.1011 203.671   3
   2   1   2 343247. 4012.39   2
   2   1   2 353769. 6649.12   3
   2   1   3 345.286 302.026   3
   2   1   3 275.569 165.019   2
   2   1   4 34924.9 2088.83   2
   2   1   4 36477.2 2584.25   3
   2   1   5 13869.9 541.117   5
   2   1   5 14349.5 1765.62   3
  -2  -1  -6 15707.6 651.505  12
   2   1   6 15132.0 1930.77   3
   2   1   6 15884.5 622.543   5
   2   1   6 15160.9 606.718   6
   2   1   7 636.030 498.720   3
  -2  -1  -7 776.788 160.417  12
   2   1   7 617.592 157.210   6
   2   1   7 781.032 164.799   5
   2   1   8 91.7791 90.5788   5
  -2  -1  -8-156.289 128.494  12
   2   1   8 174.230 274.783   3
   2   1   8 107.649 106.994   6
   2   1   9 627.879 145.402   6
   2   1   9 419.080 150.293  10
  -2  -1  -9 338.204 131.938  12
   2   1   9 486.688 139.909   5
   2   1  10 4167.48 345.725   6
   2   1  10 4356.30 356.296   5
   2   1  10 4792.93 401.253  10
   2   1  11 905.897 144.172   5
   2   1  11 1219.40 188.119  10
   2   1  12 413.022 88.3124   5
   2   1  12 598.833 119.289  10
  -2  -2  14 138.672 55.5669   6
   2   2 -13 599.782 143.215  12
  -2  -2  13 454.958 108.656   9
  -2  -2  13 556.340 133.442   6
   2   2 -12 61.3636 96.7485  12
  -2  -2  12-4.53626 83.8527   6
  -2  -2  12 89.0901 83.7475   9
  -2  -2  11 1831.05 252.161   6
  -2  -2  11 1447.65 239.784   9
   2   2 -11 1268.46 228.521  12
   2   2 -10 23158.7 904.358  12
   2   2 -10 22911.8 864.522   4
  -2  -2  10 22769.4 983.518   7
   2   2  -9 9508.38 536.211   4
  -2  -2   9 10387.0 651.090   7
   2   2  -9 10117.3 592.687  12
  -2  -2   8 254.160 151.511   7
   2   2  -8 117.092 96.5935  12
  -2  -2   8 278.827 310.271   2
   2   2  -8 143.720 98.7780   4
  -2  -2   7 3387.97 1050.73   1
  -2  -2   7 3366.92 1138.15   2
   2   2  -7 3006.68 296.437  12
  -2  -2   7 3235.65 314.396   7
   2   2  -7 2844.97 263.977   4
  -2  -2   6 33550.0 3280.41   2
  -2  -2   6 36162.2 2814.33   1
  -2  -2   5 350457. 7626.19   1
  -2  -2   5 361374. 10306.1   2
  -2  -2   4 18658.3 1601.23   1
  -2  -2   4 19781.4 2199.65   2
  -2  -2   3 8078.76 989.194   1
  -2  -2   3 8605.68 1214.97   2
  -2  -2   2 18471.8 1252.01   2
  -2  -2   2 18274.2 1364.98   1
  -2  -2   1 194836. 4493.80   1
  -2  -2   1 185417. 2532.22   2
   2   2  -1 187825. 4362.55   3
   2   2   0 4623.96 722.802   3
  -2  -2   0 5182.51 754.471   1
   2   2   1 126334. 4002.70   3
   2   2   2 18818.8 1691.78   3
   2   2   3 4298.12 888.722   3
   2   2   4 7545.79 1280.35   3
   2   2   4 7433.41 381.631   5
   2   2   5 30862.9 845.710   5
   2   2   5 30781.9 847.462   6
   2   2   5 31106.7 877.889  10
   2   2   5 31709.4 2800.62   3
  -2  -2  -6 7797.70 460.331  12
   2   2   6 8455.57 490.658  10
   2   2   6 8107.44 1486.21   3
   2   2   6 8073.24 463.899   5
   2   2   6 7887.90 464.252   6
   2   2   7 265.899 107.853   6
   2   2   7 437.730 383.879   3
   2   2   7 171.395 103.374  10
   2   2   7 223.036 103.796   5
   2   2   8 75.5252 82.8980   5
   2   2   8 80.8960 102.568   6
   2   2   8 28.4018 80.8087  10
   2   2   9 75.0838 90.3731   6
   2   2   9 66.7562 64.6837   5
   2   2   9 109.991 97.5683  10
   2   2  10 24.0680 82.4641  10
   2   2  10-66.9141 79.8942   6
   2   2  10 85.4996 73.6843   5
   2   2  11 50.8318 57.3222   5
   2   2  11 55.9938 65.9964  10
   2   2  11 17.3984 58.1531   6
   2   2  12 513.375 99.5381  10
   2   3 -14 675.784 127.652  12
  -2  -3  14 804.945 123.868   6
   2   3 -13 679.364 137.394  12
  -2  -3  13 661.155 134.213   9
  -2  -3  13 720.922 145.130   6
   2   3 -12 459.015 152.318  12
  -2  -3  12 499.357 145.451   6
  -2  -3  12 349.457 120.482   9
   2   3 -11 3344.10 366.701  12
   2   3 -11 3145.31 329.144   4
   2   3 -10 16678.6 800.028  12
  -2  -3  10 14091.4 776.027   7
   2   3 -10 15347.7 735.352   4
   2   3  -9 6347.44 499.210  12
   2   3  -9 6020.65 441.649   4
  -2  -3   9 5180.27 1569.12   2
  -2  -3   9 6214.90 504.979   7
   2   3  -8 6032.62 453.983  12
   2   3  -8 5408.94 386.696   4
  -2  -3   8 3582.47 1258.35   2
  -2  -3   8 5338.30 429.918   7
  -2  -3   8 6481.59 1483.71   1
  -2  -3   7 3387.22 952.615   1
   2   3  -7 2757.61 296.606  12
  -2  -3   7 2703.45 285.140   7
  -2  -3   7 3190.59 1170.92   2
   2   3  -7 3971.61 328.254   4
   2   3  -6 226.960 97.9743   4
  -2  -3   6-70.6566 205.302   1
  -2  -3   5 2058.51 657.805   1
  -2  -3   4 142078. 4803.69   1
  -2  -3   3 42261.2 2453.44   1
  -2  -3   2 12372.9 1238.57   1
   2   3  -1 76386.7 3236.13   3
  -2  -3   1 85547.2 3307.77   1
   2   3   0 51193.3 2735.74   3
  -2  -3   0 54530.9 2770.40   1
   2   3   1 88574.0 3757.82   3
  -2  -3  -1 86443.0 3644.76   1
   2   3   2 15289.1 1655.71   3
   2   3   3 130358. 5257.52   3
   2   3   3 133369. 1615.64   5
   2   3   4 268.921 97.2991  10
   2   3   4 288.933 94.1440   6
   2   3   4 190.530 90.2352   5
   2   3   4 429.568 428.313   3
   2   3   5 9525.29 510.206   6
   2   3   5 9927.48 517.247  10
   2   3   5 10538.9 1714.56   3
   2   3   5 9761.35 515.743   5
   2   3   6 23729.8 856.040   6
   2   3   6 24278.3 876.275  10
   2   3   6 21154.1 2522.69   3
   2   3   6 24159.9 854.136   5
   2   3   7 1749.17 245.626   6
   2   3   7 1534.88 244.673  10
   2   3   7 1531.81 230.545   5
   2   3   8 3406.42 349.419  10
   2   3   8 3537.07 337.427   5
   2   3   8 3435.34 347.539   6
   2   3   9 88.0292 83.2181   5
   2   3   9-20.3438 74.5247   6
   2   3   9-4.96979 74.6145  10
   2   3  10 812.728 158.946   6
   2   3  10 1034.15 178.707  10
   2   3  10 796.044 144.821   5
   2   3  11 579.127 115.116  10
   2   3  11 373.762 94.9537   6
  -2  -4  14 241.353 77.4146   6
   2   4 -14 293.938 94.1653  12
   2   4 -13-190.098 114.715  12
  -2  -4  13-122.588 75.3458   9
  -2  -4  13 104.189 74.0886   6
   2   4 -12 139.368 81.9653   4
  -2  -4  12 247.137 114.922   9
   2   4 -12 170.496 125.947  12
  -2  -4  12 303.512 122.031   6
   2   4 -11 836.133 192.938   4
   2   4 -11 895.585 203.543  12
   2   4 -10 276.968 168.283  12
   2   4 -10 124.623 97.7729   4
  -2  -4  10 444.654 167.154   7
   2   4  -9 69079.4 1616.78  12
  -2  -4   9 80427.1 5852.86   1
  -2  -4   9 55456.9 5100.46   2
   2   4  -9 67998.8 1514.57   4
  -2  -4   9 65983.7 1517.53   7
  -2  -4   8 34346.7 3925.96   2
  -2  -4   8 42214.2 3830.27   1
   2   4  -8 38216.0 1175.09  12
  -2  -4   8 39315.2 1108.55   7
   2   4  -8 38620.2 1089.74   4
  -2  -4   7 1098.60 184.415   7
   2   4  -7 1134.34 211.597  12
   2   4  -7 1221.95 192.961   4
  -2  -4   7 1464.45 679.947   1
  -2  -4   6 1711.42 642.750   1
   2   4  -6 1813.64 226.512   4
  -2  -4   5 33868.0 2685.24   1
   2   4  -5 31179.5 836.629   4
  -2  -4   4 17281.0 1825.82   1
  -2  -4   3 6138.67 1026.41   1
  -2  -4   2 2447.55 658.071   1
  -2  -4   1 42976.3 2685.51   1
  -2  -4   0 15464.3 1687.50   1
   2   4   0 16095.2 1761.93   3
   2   4   1 61446.2 3533.75   3
  -2  -4  -1 61014.8 3484.05   1
   2   4   2 23675.8 702.511  10
   2   4   2 22478.8 2281.48   3
   2   4   2 22512.3 681.240   5
   2   4   2 24471.2 710.335   6
  -2  -4  -2 21287.7 2196.82   1
   2   4   3 30610.2 848.350  10
   2   4   3 31157.8 2827.35   3
   2   4   3 29604.0 834.200   5
   2   4   3 31510.2 860.127   6
   2   4   4 23713.5 800.421  10
   2   4   4 26303.8 2790.92   3
   2   4   4 23111.1 796.579   5
   2   4   4 23719.6 818.769   6
   2   4   5 29762.3 959.092  10
   2   4   5 30004.2 961.919   6
   2   4   5 29800.7 3160.47   3
   2   4   5 29951.7 965.585   5
   2   4   6 65083.5 1471.64   6
   2   4   6 62725.5 1462.97  10
   2   4   6 63060.0 1441.66   5
   2   4   6 61650.8 1180.29  17
   2   4   7 116.322 95.0992   5
   2   4   7 18.2554 89.0249   6
   2   4   7 107.302 103.664  10
   2   4   8-26.3906 85.9733  10
   2   4   8 66.9114 90.8064   5
   2   4   8 64.9527 98.1481   6
   2   4   9 7.96884 62.7190   5
   2   4   9-75.7202 103.036   6
   2   4   9-63.3274 89.9192  10
   2   4  10 31.5784 53.4228   5
   2   4  10-43.4751 63.6393  10
   2   4  10-13.2609 71.5197   6
   2   4  11-20.4487 49.9949  10
   2   5 -14-9.23056 67.2237  12
   2   5 -13-99.1828 82.0374   4
   2   5 -13-61.7887 102.013  12
  -2  -5  13 52.4669 70.8809   6
  -2  -5  13 123.749 78.2867   9
   2   5 -12 648.622 156.816   4
   2   5 -12 798.771 195.230  12
   2   5 -11 619.579 174.596   4
   2   5 -11 688.421 201.891  12
   2   5 -10 13724.3 739.820  12
  -2  -5  10 12782.2 667.784   7
   2   5 -10 13868.6 731.184   4
   2   5  -9 16336.8 777.346   4
  -2  -5   9 14881.0 741.481   7
   2   5  -9 16842.1 820.840  12
  -2  -5   9 17325.6 2755.16   1
   2   5  -8 88.1437 132.354  12
  -2  -5   8 111.132 403.444   1
   2   5  -8 37.4510 98.2289   4
  -2  -5   8 9.63551 106.205   7
   2   5  -7 18535.6 794.398  12
  -2  -5   7 19342.8 2452.07   1
  -2  -5   7 18792.9 741.949   7
   2   5  -7 18591.4 761.178   4
   2   5  -6 2728.20 281.139  10
  -2  -5   6 2149.67 757.708   1
   2   5  -6 2489.87 290.335  12
   2   5  -6 2805.87 279.306   4
   2   5  -5 256.936 95.2143   4
   2   5  -5 27.9155 91.6249  10
  -2  -5   5 1.91658 257.606   1
   2   5  -4 54.3524 75.9013   4
   2   5  -4-10.3972 74.4542  10
  -2  -5   4 81.8625 278.078   1
   2   5  -3 9074.82 431.339  10
  -2  -5   3 10397.1 1439.35   1
   2   5  -3 8882.41 431.285   4
   2   5  -2 2691.82 236.124  10
   2   5  -2 2225.04 220.711   5
  -2  -5   2 2671.67 774.671   1
   2   5  -1 23249.1 672.425  10
   2   5  -1 22217.3 679.026   5
  -2  -5   1 22415.6 2173.44   1
   2   5  -1 22432.2 681.283   6
   2   5   0 778.781 137.205   5
  -2  -5   0 765.695 433.651   1
   2   5   0 673.403 133.852   6
   2   5   0 856.517 144.051  10
   2   5   1 1769.17 205.408  10
   2   5   1 1794.92 210.814   9
   2   5   1 1756.14 205.919   5
  -2  -5  -1 1600.00 615.648   1
   2   5   1 1989.79 222.052   6
  -2  -5  -2 12956.9 1934.79   1
   2   5   2 12679.2 582.073   6
   2   5   2 12693.6 564.321  10
   2   5   2 10959.4 529.042   9
   2   5   2 12774.8 572.155   5
   2   5   2 12503.9 1924.97   3
   2   5   3 20246.4 753.961   6
   2   5   3 19297.3 737.197  10
   2   5   3 19906.1 2566.24   3
   2   5   3 18465.5 710.772   9
   2   5   3 19096.3 743.607   5
  -2  -5  -3 20062.1 2601.18   1
   2   5   4 719.653 167.491   6
   2   5   4 765.755 170.162  10
   2   5   4 694.590 156.544   5
   2   5   4 1267.49 681.272   3
  -2  -5  -4 375.245 314.634   1
   2   5   5 12566.0 659.320   6
   2   5   5 11940.4 640.917  10
   2   5   5 9614.30 1953.55   3
   2   5   5 11813.7 645.020   5
  -2  -5  -5 12468.0 2369.97   1
   2   5   6 214.898 104.849   6
   2   5   6 136.940 85.6647  10
   2   5   6-33.9071 90.5404  17
   2   5   6 112.214 101.780   5
  -2  -5  -6-187.275 643.908   1
   2   5   7 6017.54 459.193   6
   2   5   7 4239.12 297.703  17
   2   5   7 5543.39 451.794  10
   2   5   7 5029.88 415.925   5
   2   5   8 220.584 97.4824   5
   2   5   8 238.553 112.392   6
   2   5   8 296.856 116.547  10
   2   5   9 1111.02 183.672  10
   2   5   9 1009.24 159.670   5
   2   5   9 1133.56 179.686   6
   2   5  10 199.551 68.1817   6
   2   5  10 151.374 77.8325  10
   2   6 -14 148.073 67.6732  12
   2   6 -13 2318.52 232.823  12
   2   6 -13 2274.47 241.535   4
  -2  -6  13 2753.09 221.924   6
  -2  -6  13 2328.88 225.007   9
   2   6 -12 337.108 126.280   4
   2   6 -12 459.006 148.856  12
   2   6 -11 90.2468 91.0899   4
   2   6 -11-36.1752 108.994  12
   2   6 -10 212.207 140.722  12
   2   6 -10 31.6710 98.1207   4
  -2  -6   9 457.250 655.069   1
   2   6  -9 143.445 131.660   4
  -2  -6   9-406.378 457.958   2
   2   6  -9 152.116 123.571  12
   2   6  -8 55056.6 1432.21  12
  -2  -6   8 57013.2 4650.90   1
   2   6  -8 56227.4 1413.24   4
   2   6  -7 17907.8 800.545  12
   2   6  -7 18915.7 789.138   4
  -2  -6   7 18399.4 2455.10   1
   2   6  -6 814.627 199.573  12
   2   6  -6 756.850 171.721  10
   2   6  -6 790.527 173.336   4
  -2  -6   6 580.855 392.639   1
  -2  -6   5 305.501 391.162   1
   2   6  -5 326.851 146.338  12
   2   6  -5 272.054 106.160  10
   2   6  -5 322.283 130.569   4
   2   6  -4 9918.99 511.241  10
  -2  -6   4 11442.3 1711.97   1
   2   6  -4 10073.1 516.001   4
   2   6  -3 7149.83 419.611  10
  -2  -6   3 7841.80 1370.94   1
   2   6  -3 7572.48 425.495   4
   2   6  -2 11058.2 506.501  10
   2   6  -2 10295.5 477.703   4
   2   6  -2 9064.26 499.340   5
   2   6  -2 10245.4 577.947   9
  -2  -6   2 11169.0 1666.69   1
   2   6  -1 6788.51 410.515   6
   2   6  -1 7096.30 419.416  10
   2   6  -1 6613.98 423.799   5
   2   6  -1 6769.24 455.034   9
  -2  -6   1 7231.31 1358.25   1
   2   6  -1 7022.24 397.629   4
   2   6   0 646.400 151.257   5
   2   6   0 588.408 132.860   6
   2   6   0 521.162 113.106   4
  -2  -6   0 544.373 443.679   1
   2   6   0 561.557 132.015  10
   2   6   0 507.327 147.339   9
  -2  -6  -1 20479.7 2496.54   1
   2   6   1 21377.3 761.873   6
   2   6   1 21403.9 764.272  10
   2   6   1 20107.5 773.189   9
   2   6   1 20869.2 784.408   5
   2   6   2 2219.33 261.397  10
   2   6   2 1916.69 250.919   9
   2   6   2 2130.47 267.281   5
   2   6   2 2075.25 267.684   6
  -2  -6  -2 2358.70 899.354   1
  -2  -6  -3 13175.5 2318.94   1
   2   6   3 12683.6 635.916  10
   2   6   3 12555.3 638.489   9
   2   6   3 12382.5 660.629   5
   2   6   3 12751.6 654.322   6
   2   6   4 9475.15 577.114  10
   2   6   4 10005.5 558.092  17
   2   6   4 9416.87 559.058   9
   2   6   4 9559.59 601.992   5
  -2  -6  -4 10345.6 2179.00   1
   2   6   4 9830.34 592.096   6
   2   6   5 3078.44 302.094  17
   2   6   5 3560.92 356.361   6
   2   6   5 3203.81 339.723  10
   2   6   5 3130.85 359.398   5
  -2  -6  -5 3312.21 1277.95   1
   2   6   6 2305.28 241.891  17
   2   6   6 2791.59 326.880   6
   2   6   6 2726.87 323.425  10
   2   6   6 2499.70 313.466   5
   2   6   7 1152.81 160.577  17
   2   6   7 1501.89 229.068   6
   2   6   7 1199.36 208.777  10
   2   6   7 1230.12 198.784   5
   2   6   8 1244.82 196.866  10
   2   6   8 1172.75 184.794   6
   2   6   8 1275.50 181.098   5
   2   6   9 114.337 67.8774   6
   2   6   9 236.045 85.8395  10
   2   7 -13 480.550 105.864  12
   2   7 -13 544.994 122.066   4
  -2  -7  13 492.666 97.6316   9
   2   7 -12 346.745 106.544  12
   2   7 -12 260.823 114.757   4
   2   7 -11-66.8297 112.226   4
   2   7 -11-32.6706 89.8628  12
   2   7 -10 250.393 138.111  12
   2   7 -10 9.47973 108.278   4
   2   7  -9 1715.22 272.718  12
   2   7  -9 2182.47 316.272   4
   2   7  -8 10861.9 635.434  12
  -2  -7   8 9906.55 1961.32   1
   2   7  -8 10749.9 646.139   4
   2   7  -7 35.4494 111.999  12
  -2  -7   7 345.321 349.298   1
   2   7  -7-16.4747 116.682   4
   2   7  -6 4979.47 418.679  12
   2   7  -6 5589.57 441.287   4
   2   7  -6 5644.08 419.104  10
  -2  -7   6 4789.90 1274.66   1
   2   7  -5 5413.97 422.091   4
   2   7  -5 5366.04 414.743  10
   2   7  -4 718.883 164.561   4
   2   7  -4 880.840 182.578  10
  -2  -7   4 833.724 630.370   1
   2   7  -3 255.167 117.050   4
   2   7  -3 229.253 106.233  10
  -2  -7   3-2.47936 272.414   1
   2   7  -2 1971.38 239.845  10
  -2  -7   2 2037.95 889.526   1
   2   7  -2 1697.93 276.279   9
   2   7  -2 2063.12 242.773   4
   2   7  -1 21.3944 87.4892   4
   2   7  -1 57.1719 87.0303   6
   2   7  -1 81.1323 95.9836  10
   2   7  -1 51.4675 140.086   9
  -2  -7   1 55.6936 350.623   1
   2   7  -1 126.513 107.450   5
   2   7   0 6355.29 440.236  10
   2   7   0 5621.96 443.312   5
   2   7   0 4997.14 431.886   9
  -2  -7   0 5559.21 1322.82   1
   2   7   0 6113.34 437.044   6
  -2  -7  -1 2439.27 925.075   1
   2   7   1 2824.32 324.485   5
   2   7   1 2667.06 327.606   9
   2   7   1 3112.19 322.609   6
   2   7   1 2844.51 305.034  10
   2   7   2 2148.12 273.904  10
   2   7   2 2011.28 270.714  17
  -2  -7  -2 2037.02 1000.69   1
   2   7   2 1856.12 279.036   5
   2   7   2 1742.50 278.948   9
   2   7   2 1920.40 263.875   6
   2   7   3 234.600 123.141   5
   2   7   3 261.929 138.294   6
   2   7   3 361.765 136.268  10
   2   7   3 243.329 126.920   9
  -2  -7  -3 422.297 316.874   1
   2   7   3 203.676 143.829  17
   2   7   4 802.050 200.257   6
   2   7   4 612.458 180.260   5
   2   7   4 869.382 191.125  10
   2   7   4 844.806 194.823   9
   2   7   4 617.485 157.849  17
   2   7   5 6411.19 481.862  10
   2   7   5 6543.68 502.005   5
   2   7   5 6038.41 399.900  17
   2   7   5 6942.06 497.445   6
   2   7   6-113.122 120.825   6
   2   7   6 159.772 85.8523  17
   2   7   6 38.2767 102.059  10
   2   7   6 117.218 104.401   5
   2   7   7 1748.71 227.397   6
   2   7   7 1475.47 198.693   5
   2   7   7 1651.70 212.207  10
   2   7   8 70.9350 69.4890   6
   2   7   8 116.785 64.3624  10
   2   8 -13 449.636 99.3947   4
   2   8 -13 371.982 95.8471  12
   2   8 -12 529.739 125.977  12
   2   8 -12 784.059 155.790   4
   2   8 -11 1202.70 191.424  12
   2   8 -11 1279.90 206.713   4
   2   8 -10 1080.24 205.651   4
   2   8 -10 982.450 190.085  12
   2   8  -9 63.7689 99.9649   4
   2   8  -9 95.1635 98.9271  12
   2   8  -8-21.3326 102.015   4
   2   8  -8-81.6678 118.785  12
   2   8  -8 51.0441 82.3072  13
   2   8  -7 9753.72 577.333  12
  -2  -8   7 9788.04 1951.50   1
   2   8  -7 11491.2 661.695   4
   2   8  -6 3025.70 317.593  10
  -2  -8   6 2730.34 1082.22   1
   2   8  -6 3271.08 356.519   4
   2   8  -5 2201.35 280.654  10
  -2  -8   5 2282.99 975.286   1
   2   8  -5 2184.09 269.231   4
  -2  -8   4 358.331 308.711   1
   2   8  -4 236.074 132.649  10
   2   8  -4 258.562 126.429   4
   2   8  -3 9073.30 460.216  17
   2   8  -3 10462.9 590.666  10
   2   8  -3 9969.61 570.222   4
  -2  -8   2 484.204 479.479   1
   2   8  -2 907.555 164.433   4
   2   8  -2 976.194 179.171  17
   2   8  -2 1239.62 208.683  10
   2   8  -1 21074.2 927.511   9
   2   8  -1 22564.1 872.057  10
  -2  -8   1 19936.5 2740.41   1
   2   8  -1 22126.2 841.263  17
   2   8   0 275.535 135.734   6
   2   8   0 234.986 113.113  10
   2   8   0 208.370 163.134   9
  -2  -8   0 372.338 441.685   1
   2   8   0 191.274 125.108  17
   2   8   1 209.644 130.335   6
   2   8   1 61.8414 131.382  17
   2   8   1 103.423 101.476  10
   2   8   1-4.24275 123.908   9
   2   8   1 62.7399 99.8164   5
  -2  -8  -1 32.6509 585.484   1
   2   8   2 174.723 79.6301  13
   2   8   2 540.144 164.220   6
   2   8   2 483.714 150.072  10
   2   8   2 548.283 171.022  17
   2   8   2 513.815 185.204   9
   2   8   2 415.331 184.736   5
   2   8   3 295.069 136.541   6
   2   8   3 320.854 134.926  10
   2   8   3 275.830 171.909   9
   2   8   3 214.874 121.382   5
   2   8   3 239.551 130.862  17
   2   8   4 1956.83 244.521  17
   2   8   4 2416.72 291.756  10
   2   8   4 2070.37 291.872   5
   2   8   4 2291.86 282.684   9
   2   8   4 2468.66 305.382   6
   2   8   5 36.7213 73.8966  17
   2   8   5 210.514 107.357   6
   2   8   5 30.9552 74.7856  10
   2   8   5 169.301 104.045   5
   2   8   6 1248.90 185.862  10
   2   8   6 1565.95 212.299   6
   2   8   7 365.021 94.7829  10
   2   8   7 510.536 116.781   6
   2   9 -12 1771.88 190.207   4
   2   9 -11 407.345 112.580   4
   2   9 -11 368.126 107.205  12
   2   9 -10 217.580 88.8354  12
   2   9 -10 888.251 183.268   4
   2   9  -9 132.754 110.832   4
   2   9  -8-56.3866 97.0404   4
   2   9  -8-104.430 92.8172  13
   2   9  -7 641.534 157.553  13
   2   9  -7 1756.71 260.850   4
   2   9  -6-38.7103 88.5436   4
   2   9  -6 10.1416 99.5386  10
   2   9  -5 2538.13 308.607  10
   2   9  -5 1866.87 282.901   4
   2   9  -4 62.6468 110.809   4
   2   9  -4 23.9910 87.5387  10
  -2  -9   4 232.252 237.130   1
   2   9  -3 919.819 198.701   4
   2   9  -3 911.484 210.778  10
   2   9  -3 722.926 151.461  17
   2   9  -2 1125.46 223.554  10
   2   9  -2 846.774 163.637  17
   2   9  -1 46.0722 114.482  10
   2   9  -1 225.833 102.623  17
   2   9   0 234.548 114.664  10
   2   9   0 578.117 192.623   9
   2   9   0 82.0337 109.521  13
   2   9   0 385.129 152.378  17
   2   9   1 7685.61 513.730  17
   2   9   1 7374.72 508.784  10
   2   9   1 6820.81 546.011   9
   2   9   2 885.385 191.201  10
   2   9   2 934.687 182.612   6
   2   9   2 897.054 227.853   9
   2   9   2 821.886 180.508  17
   2   9   3 395.135 129.943  17
   2   9   3 341.273 135.082   6
   2   9   3 601.732 164.698  10
   2   9   3 508.897 144.402   9
   2   9   4 178.302 92.8955   6
   2   9   4 245.361 105.864  10
   2   9   4 170.255 95.9531  17
   2   9   5-33.4635 77.4865   6
   2   9   5 6.45524 57.6709  10
   2   9   6 1328.80 158.500  10
   2  10 -11 423.994 118.818   4
   2  10 -11 217.936 71.2749  14
   2  10 -10 2001.31 233.767   4
   2  10  -9 417.638 135.666   4
   2  10  -8 308.767 114.252   4
   2  10  -8 84.1023 73.3593  13
   2  10  -7-19.9411 79.2933  13
   2  10  -7 213.547 115.614   4
   2  10  -6 688.201 167.636   4
   2  10  -6 255.276 126.654  13
   2  10  -5 50.3027 118.796  13
   2  10  -5-9.73491 103.353  10
   2  10  -5 107.443 110.397   4
   2  10  -4 489.500 151.201  10
   2  10  -4 83.6458 124.862  13
   2  10  -3 125.774 137.146  13
   2  10  -3 110.924 90.4115  10
   2  10  -3 20.8940 72.6596  17
   2  10  -2 1761.68 256.784  10
   2  10  -2 1306.31 193.854  17
   2  10  -1 1872.87 276.754  10
   2  10  -1 1241.73 203.887  17
   2  10   0 363.121 130.709  13
   2  10   0 746.897 180.085  10
   2  10   0 359.814 114.186  17
   2  10   1 1169.02 204.231  10
   2  10   1 1055.77 192.980  17
   2  10   2-3.85196 72.6969  10
   2  10   2 92.6123 96.1777  17
   2  10   3 747.276 149.050  10
   2  10   4 361.864 112.992  10
   2  11 -10-61.1858 53.2557  14
   2  11  -9-120.392 74.3653   4
   2  11  -8-6.60867 75.7499   4
   2  11  -8-30.4276 64.0282  13
   2  11  -7 75.7466 64.3860  13
   2  11  -7-118.287 90.1404   4
   2  11  -6 23.2740 78.9145  13
   2  11  -5 114.079 114.877  13
   2  11  -5 37.7976 79.6366  10
   2  11  -4 513.741 138.999  10
   2  11  -4 266.960 155.264  13
   2  11  -3-3.77918 81.8243  10
   2  11  -3 13.5157 88.4177  13
   2  11  -2-86.2856 88.0229  10
   2  11  -2 66.4379 96.9899  13
   2  11  -1 140.122 91.4126  13
   2  11  -1 460.745 127.611  10
   2  11   0 24.9074 72.5373  10
   2  11   0-178.990 89.4020  13
   2  11   1 414.950 113.983  10
   2  11   2 163.092 71.9338  10
   2  12  -7-28.8929 48.2530  14
   2  12  -7-85.2704 56.6749  13
   2  12  -6 164.543 75.0818  14
   2  12  -6 71.0834 80.2398  13
   2  12  -5-7.41039 44.5715  14
   2  12  -5 21.4177 71.4666  13
   2  12  -4 41.1207 65.3918  13
   2  12  -3-96.3122 86.6926  13
   2  12  -3 67.1258 66.4830  10
   2  12  -2 34.9768 54.0210  10
   2  12  -2-11.7397 62.9930  13
   2  12  -1-34.6675 59.0565  10
  -3  13  -1 223.738 79.2616  13
  -3  13  -2 1412.89 195.485  13
  -3  13  -3-14.2685 68.3326  13
  -3  13  -4 61.3629 67.6910  13
  -3  12   3 135.928 78.6443  18
  -3  12   2 541.266 132.710   9
  -3  12   2 612.130 138.471  18
  -3  12   1 431.921 122.333  13
  -3  12   1 326.010 118.683   9
  -3  12   1 358.640 116.181  18
  -3  12   0 2888.80 286.996  18
  -3  12   0 3268.42 308.610  13
  -3  12   0 3185.95 300.190   9
  -3  12  -1-75.5005 92.4080  18
  -3  12  -1 17.4504 84.7293  13
  -3  12  -2 137.457 71.5655  18
  -3  12  -2 380.838 141.326  13
  -3  12  -3 201.526 107.504  13
  -3  12  -4 237.925 118.440  13
  -3  12  -4-88.2932 104.127  14
  -3  12  -5-42.9608 82.4228  13
  -3  12  -5-77.8701 67.1361   8
  -3  12  -5-87.1883 83.5239  14
  -3  12  -6 541.080 121.992   8
  -3  12  -6 612.674 132.531  14
  -3  12  -6 710.632 140.319  13
  -3  12  -7 531.991 121.876   8
  -3  12  -8-30.6268 45.8424   8
  -3  11   5 51.1895 66.5554  18
  -3  11   5 87.3524 79.5368   9
  -3  11   4 280.447 96.7468   9
  -3  11   4 87.6762 77.5492  18
  -3  11   3 1787.23 246.664  18
  -3  11   3 2119.00 269.695   9
  -3  11   2 42.3549 86.7530  18
  -3  11   2 24.2721 98.0683   9
  -3  11   2-101.227 78.9764  13
  -3  11   1 233.069 120.908   9
  -3  11   1 74.2767 102.092  18
  -3  11   1 78.7834 94.0741  13
  -3  11   0 1047.61 209.046   9
  -3  11   0 995.731 201.291  18
  -3  11   0 792.461 193.062  13
  -3  11  -1 1384.31 229.621  18
  -3  11  -1 1441.04 227.548   9
  -3  11  -1 1439.17 274.039  13
  -3  11  -2 3867.38 340.520  18
  -3  11  -2 4028.04 444.058  13
  -3  11  -2 3523.30 355.096  14
  -3  11  -3 28.2549 76.9303   8
  -3  11  -3-23.4177 103.993  13
  -3  11  -3 5.32761 74.6207  14
  -3  11  -4 3878.82 397.371  14
  -3  11  -4 2814.14 311.146   8
  -3  11  -4 3787.40 413.723  13
  -3  11  -5 314.513 125.811  13
  -3  11  -5 66.0313 77.2013   8
  -3  11  -5 56.6930 86.3832  14
  -3  11  -6 457.557 137.688  14
  -3  11  -6 384.696 135.023   8
  -3  11  -6 593.528 151.201  13
  -3  11  -7 326.817 96.9222  14
  -3  11  -7 250.600 114.605   8
  -3  11  -7 297.012 105.317  13
  -3  11  -8 700.888 143.555  14
   3 -11   8 1016.80 151.915   5
  -3  11  -8 896.757 174.389   8
  -3  11  -9 10.2088 53.7409   8
   3 -11   9-135.141 54.5194   5
  -3  10   6 858.951 160.436   9
  -3  10   6 459.031 114.947  18
  -3  10   5 891.374 197.135   9
  -3  10   5 545.867 141.048  18
  -3  10   4 1817.61 272.138  18
  -3  10   4 2244.69 301.747   9
  -3  10   3 160.903 139.107  18
  -3  10   3 207.414 152.484   9
  -3  10   2 117.931 137.740  18
  -3  10   2 40.7355 93.7145   9
  -3  10   2-43.6107 81.3124  13
  -3  10   1 2268.23 287.200   9
  -3  10   1 2065.66 297.027  13
  -3  10   1 2590.78 349.348  18
  -3  10   0 61.9551 98.8044  18
  -3  10   0 335.241 145.290   9
  -3  10   0 130.088 102.048  13
  -3  10  -1 419.139 142.790  18
  -3  10  -1 399.613 146.758   9
  -3  10  -1 318.306 141.635  14
  -3  10  -1 227.182 144.219  13
  -3  10  -2 4632.86 400.399  18
  -3  10  -2 4244.37 365.945   9
  -3  10  -2 3708.85 361.071   8
  -3  10  -2 4149.04 409.558  14
  -3  10  -2 4905.78 511.173  13
  -3  10  -3 5057.64 446.675   8
  -3  10  -3 6380.04 427.546  18
  -3  10  -3 6498.93 568.303  13
  -3  10  -3 6060.99 516.772  14
  -3  10  -4 243.009 102.497  14
  -3  10  -4 36.8460 109.193   8
  -3  10  -4 194.617 121.747  13
  -3  10  -5 3990.69 430.080  14
  -3  10  -5 3381.71 401.583   8
  -3  10  -5 3658.67 378.566  13
  -3  10  -6 762.829 203.926   8
  -3  10  -6 875.602 204.999  14
  -3  10  -6 950.954 190.379  13
  -3  10  -7-64.3583 74.3907  13
  -3  10  -7 10.7708 86.9923   8
  -3  10  -7 197.660 115.573  14
  -3  10  -8 274.647 129.693   8
  -3  10  -8 116.882 81.1596  14
  -3  10  -9 8.04660 64.6813   8
   3 -10   9-60.6278 72.3675   5
   3 -10  10 615.911 109.142   5
  -3  10 -10 348.789 100.967   8
  -3   9   8 191.167 77.2870   9
  -3   9   7-35.7118 76.6731   9
  -3   9   7-292.807 89.8713  18
  -3   9   6 1073.15 210.892   9
  -3   9   6 483.329 121.846  18
  -3   9   5 51.3957 105.499  18
  -3   9   5 20.1832 107.212   9
  -3   9   4 68.3423 100.649   9
  -3   9   4-167.646 136.808  18
  -3   9   3 2350.26 349.217  18
  -3   9   3 2407.57 335.557   9
  -3   9   3 1878.61 248.431  13
  -3   9   3 2318.07 359.416  16
  -3   9   2-25.6326 132.955  18
  -3   9   2-2.32839 101.611   9
  -3   9   2-24.7787 176.816  16
  -3   9   2 92.8932 95.3350  13
  -3   9   1 4076.48 465.186  18
  -3   9   1 3835.66 372.371   9
  -3   9   1 3846.37 509.755  11
  -3   9   1 3789.34 409.685  13
  -3   9   0 2074.72 270.139   9
  -3   9   0 2073.92 328.736  13
  -3   9   0 2042.54 265.008  14
  -3   9   0 1968.99 383.501  11
  -3   9   0 2165.48 312.553  18
  -3   9  -1 1206.45 199.977   8
  -3   9  -1 888.555 257.234  11
  -3   9  -1 1368.66 235.503  18
  -3   9  -1 1389.98 217.084   9
  -3   9  -1 1399.19 240.365  14
  -3   9  -1 1582.17 300.777  13
  -3   9  -2 53.2784 91.5425   9
  -3   9  -2 168.968 96.1335  18
  -3   9  -2-3.40058 73.5096   8
  -3   9  -2-27.6290 105.295  14
  -3   9  -3 16388.5 688.870  18
  -3   9  -3 14001.7 755.408   8
  -3   9  -3 15480.4 822.021  14
  -3   9  -3 14809.7 850.233  13
  -3   9  -4 3302.36 398.619   8
  -3   9  -4 3348.94 400.677  14
  -3   9  -4 3545.57 405.247  13
   3  -9   4 2998.95 1130.64   3
   3  -9   5-44.9228 455.542   3
  -3   9  -5 67.0522 93.7690  13
  -3   9  -5 183.869 146.143   8
  -3   9  -5 243.137 151.235  14
  -3   9  -6 1483.30 224.336  13
  -3   9  -6 1523.48 256.916  14
  -3   9  -6 1492.18 284.769   8
  -3   9  -7 3067.62 321.966  14
  -3   9  -7 3512.58 318.693  13
  -3   9  -7 3325.98 391.450   8
  -3   9  -8 5040.95 444.001   8
  -3   9  -8 4441.39 358.773  14
   3  -9   9 6109.05 386.922   5
  -3   9  -9 5898.55 423.551   8
  -3   9 -10 258.886 101.556   8
   3  -9  10 327.684 96.0501   5
   3  -9  11 1571.07 165.359   5
  -3   9 -11 822.004 122.118   8
  -3   8   9 91.8196 62.2130   9
  -3   8   8 407.333 127.874   9
  -3   8   7 192.758 131.282   9
  -3   8   7 60.8313 72.7445  18
  -3   8   6 784.859 206.363   9
  -3   8   6 407.886 133.121  18
  -3   8   6 561.585 215.311  16
  -3   8   5-6.41466 111.357   9
  -3   8   5 253.363 157.645  18
  -3   8   5-6.45732 175.394  16
  -3   8   4 2010.53 420.453  11
  -3   8   4 1972.50 304.052   9
  -3   8   4 1699.76 286.865  18
  -3   8   4 1882.22 335.095  16
  -3   8   3 1975.13 332.874  18
  -3   8   3 1110.36 490.730   2
  -3   8   3 1568.46 353.180  11
  -3   8   3 1955.94 279.013   9
  -3   8   3 1918.31 355.837  16
  -3   8   3 1691.83 233.472  13
  -3   8   2 58335.7 1684.44  18
  -3   8   2 57976.8 1810.45  11
  -3   8   2 56735.9 1396.63   9
  -3   8   2 57258.5 1533.18  16
  -3   8   2 59160.8 1425.22  13
  -3   8   1 505.319 210.865  11
  -3   8   1 495.881 143.536   9
  -3   8   1 455.404 169.534  18
  -3   8   1 407.625 167.556  16
  -3   8   1 612.019 144.189  14
  -3   8   1 616.780 169.862  13
  -3   8   0-33.4597 139.233  11
  -3   8   0 209.021 133.466  18
  -3   8   0 151.264 95.7157   9
  -3   8   0 172.236 122.384  16
  -3   8   0 217.132 102.446  14
  -3   8   0 239.721 131.909  13
  -3   8  -1 3.20696 129.154  11
  -3   8  -1 156.906 90.0660  19
  -3   8  -1 238.157 109.696   9
  -3   8  -1 94.7397 101.011  18
  -3   8  -1 189.061 143.763  13
  -3   8  -1 69.5456 89.1882   8
  -3   8  -1 129.844 103.893  14
  -3   8  -2 15873.0 777.822  14
  -3   8  -2 16158.5 683.143  18
  -3   8  -2 15405.7 689.993  19
  -3   8  -2 15443.0 803.647  11
  -3   8  -2 16156.2 761.970   8
  -3   8  -2 16036.6 841.530  13
  -3   8  -3 2790.97 275.530  18
  -3   8  -3 2463.32 326.095  14
  -3   8  -3 2457.06 323.563  13
  -3   8  -3 2558.00 318.962   8
   3  -8   4 12778.8 2177.20   3
  -3   8  -4 14833.0 784.300  14
  -3   8  -4 14706.6 815.544   8
  -3   8  -4 14799.8 724.605  13
  -3   8  -5 5065.41 498.928   8
  -3   8  -5 5657.13 422.924  13
   3  -8   5 5683.61 1456.74   3
  -3   8  -5 5722.83 481.654  14
  -3   8  -6 3096.92 342.383  14
  -3   8  -6 3088.99 397.433   8
  -3   8  -6 2703.11 292.238  13
   3  -8   6 2997.41 1052.42   3
  -3   8  -7 2393.49 332.500   8
  -3   8  -7 2191.86 267.758  14
  -3   8  -8 988.387 196.171  12
  -3   8  -8 1595.68 258.849   8
  -3   8  -8 1390.59 193.016  14
  -3   8  -9 801.405 182.780  12
   3  -8   9 774.289 163.234   5
  -3   8  -9 794.271 171.988   8
  -3   8 -10 185.524 106.406  12
   3  -8  10 255.219 91.3167   5
  -3   8 -10 170.088 84.3074   8
  -3   8 -11 3442.20 279.888  12
   3  -8  11 4005.99 280.876   5
   3  -8  12 8.57212 38.4030   5
  -3   7  10-65.2330 53.8325   9
  -3   7   9 24.0522 60.8987   6
  -3   7   9 6.87281 93.5411   9
  -3   7   8 29.3997 153.541  16
  -3   7   8 81.0403 98.8070   6
  -3   7   8-28.5606 112.005   9
  -3   7   7 954.552 187.302   6
  -3   7   7 320.436 92.9054  18
  -3   7   7 909.279 219.224   9
  -3   7   7 810.529 250.915  16
  -3   7   6 1127.81 217.557  18
  -3   7   6 1328.92 218.521   6
  -3   7   6 1761.27 286.575   9
  -3   7   5 1436.15 342.095  11
  -3   7   5 1758.51 287.431   9
  -3   7   5 1802.01 319.440  16
  -3   7   5 1331.69 246.741  18
  -3   7   4 42017.8 1512.81  11
  -3   7   4 42701.4 1359.46  18
  -3   7   4 40487.7 1259.48   9
  -3   7   4 41355.3 1357.23  16
  -3   7   4 38843.1 4016.27   2
  -3   7   3 9183.42 507.103  13
  -3   7   3 10368.8 745.179  11
  -3   7   3 9867.19 659.555  18
  -3   7   3 9005.88 559.131   9
  -3   7   3 9457.00 626.652  16
  -3   7   3 8972.22 1796.81   2
  -3   7   2 17197.2 854.606  18
  -3   7   2 16769.3 924.763  11
  -3   7   2 16722.6 2361.61   2
  -3   7   2 16869.7 789.176  16
  -3   7   2 16809.5 707.742   9
  -3   7   2 17374.5 731.951  13
  -3   7   1 21.8222 114.476  16
  -3   7   1 41.2304 128.009  11
  -3   7   1 145.628 207.191   2
  -3   7   1 111.491 70.7882   9
  -3   7   1 46.5052 97.5279  18
  -3   7   1 36.4197 70.3510  14
  -3   7   1 287.131 120.732  13
  -3   7   0 21645.6 828.689  18
  -3   7   0 22389.8 982.580  11
  -3   7   0 22700.8 813.586  19
  -3   7   0 22728.4 724.794   9
  -3   7   0 22239.8 904.132  13
  -3   7   0 22373.1 786.788  14
  -3   7   0 23187.0 741.072   8
  -3   7   0 22488.3 783.060  16
  -3   7  -1 918.988 168.215  19
  -3   7  -1 1004.84 156.447   9
  -3   7  -1 852.667 152.184   8
  -3   7  -1 915.864 187.918  14
  -3   7  -1 937.103 198.869  13
  -3   7  -1 935.614 182.638  18
  -3   7  -1 1026.63 219.908  11
  -3   7  -2 48492.3 1170.64  19
  -3   7  -2 50089.0 1323.11  11
  -3   7  -2 52876.5 1110.11  18
  -3   7  -2 50306.3 1268.96   8
  -3   7  -2 50364.6 1295.51  14
  -3   7  -2 47892.2 1319.29  13
  -3   7  -3 43391.5 1118.43  19
  -3   7  -3 44115.2 1275.07   8
  -3   7  -3 43658.4 1254.01  14
  -3   7  -3 41606.7 1207.55  13
  -3   7  -4 7921.38 493.440  19
  -3   7  -4 8448.82 592.259   8
  -3   7  -4 8513.19 552.444  14
   3  -7   4 7925.50 1666.26   3
  -3   7  -4 8377.95 509.141  13
  -3   7  -5 569.992 147.428  19
   3  -7   5 1044.24 722.826   3
  -3   7  -5 804.425 174.130  14
  -3   7  -5 702.341 190.682   8
  -3   7  -5 705.975 143.622  13
  -3   7  -6 932.906 202.630  12
  -3   7  -6 901.788 200.578  19
  -3   7  -6 1100.06 179.027  13
  -3   7  -6 1403.45 221.190  14
  -3   7  -6 882.392 208.057   8
   3  -7   6 443.806 422.205   3
  -3   7  -7 1283.98 260.385  12
  -3   7  -7 749.590 173.831  19
  -3   7  -7 1280.26 196.732  14
  -3   7  -7 1095.56 221.320   8
   3  -7   7 978.916 631.390   3
  -3   7  -8 10883.0 674.827  12
   3  -7   8 11827.8 608.540   5
  -3   7  -8 10165.1 607.601   8
  -3   7  -8 9420.86 487.558  14
  -3   7  -9 5448.23 458.934  12
   3  -7   9 5693.79 415.985   5
  -3   7  -9 4826.37 393.914   8
   3  -7  10 7664.34 454.222   5
  -3   7 -10 7436.19 503.969  12
   3  -7  11 2699.50 247.092   5
  -3   7 -11 2905.43 290.719  12
   3  -7  12 1654.77 168.054   5
  -3   7 -12 1271.07 173.573  12
  -3   6  10 205.727 89.2725   6
  -3   6  10 402.392 126.183   9
  -3   6   9 1824.12 244.661   6
  -3   6   9 2253.80 281.689   9
  -3   6   9 2154.48 301.493  16
  -3   6   8 1153.15 269.052  16
  -3   6   8 1136.76 208.309   6
  -3   6   8 1541.06 262.779   9
  -3   6   7 267.120 126.788   6
  -3   6   7 435.360 161.393   9
  -3   6   7 262.486 113.270  18
  -3   6   7 330.913 202.543  16
  -3   6   6 2537.11 296.012   6
  -3   6   6 2528.52 392.384  11
  -3   6   6 2109.23 1093.32   2
  -3   6   6 2658.72 354.378   9
  -3   6   6 2534.71 360.182  16
  -3   6   6 2341.22 288.676  18
  -3   6   5-66.2680 164.081  11
  -3   6   5 101.987 133.660  16
  -3   6   5-84.4463 88.8055   6
  -3   6   5-256.171 637.592   2
  -3   6   5 51.1133 95.1399   9
  -3   6   5-138.298 103.585  18
  -3   6   4 1204.78 268.813  11
  -3   6   4 1131.15 246.881  16
  -3   6   4 1091.28 202.605  18
  -3   6   4 937.101 329.909   2
  -3   6   4 953.690 199.742   9
  -3   6   3 9522.37 595.291  18
  -3   6   3 7760.02 1572.03   2
  -3   6   3 8454.19 620.926  11
  -3   6   3 8552.28 517.263   9
  -3   6   3 8285.46 559.901  16
  -3   6   3 8951.85 473.131  13
  -3   6   2 23661.1 2620.93   2
  -3   6   2 22541.9 757.002   9
  -3   6   2 22411.5 846.571  16
  -3   6   2 21733.9 858.962  18
  -3   6   2 22337.0 775.004  13
  -3   6   2 22188.2 967.464  11
  -3   6   1 13844.5 549.663   9
  -3   6   1 13000.5 716.362  11
  -3   6   1 13429.8 604.722  19
  -3   6   1 13949.0 638.293  13
  -3   6   1 13885.5 637.034  18
  -3   6   1 14077.1 628.683  16
  -3   6   1 14011.8 555.131  14
  -3   6   1 14727.3 1960.86   2
  -3   6   0 128688. 1941.83  13
  -3   6   0 131042. 1808.34  19
  -3   6   0 124547. 2092.87  11
  -3   6   0 122318. 1797.59  18
  -3   6   0 129179. 1653.19   8
  -3   6   0 129593. 1732.22  14
  -3   6   0 135805. 5803.24   2
  -3   6  -1 349.742 100.625  18
  -3   6  -1 220.976 102.459  11
  -3   6  -1 448.499 106.645  19
  -3   6  -1 275.553 93.0749   8
  -3   6  -1 473.590 120.504  14
  -3   6  -1 310.683 110.486  13
  -3   6  -2 17233.5 582.125  18
  -3   6  -2 16853.4 651.467  19
  -3   6  -2 17578.2 700.830   8
  -3   6  -2 16846.9 681.089  14
  -3   6  -2 16820.0 690.987  13
  -3   6  -3 50188.2 966.968  18
  -3   6  -3 52150.5 1173.33  19
  -3   6  -3 53755.3 1251.01  14
  -3   6  -3 55060.0 1324.13   8
  -3   6  -3 52658.6 1197.76  13
   3  -6   3 57166.2 3963.43   3
  -3   6  -4 33055.1 1082.00   8
  -3   6  -4 32573.5 977.537  19
  -3   6  -4 33330.6 989.146  14
  -3   6  -4 34678.1 932.664  13
   3  -6   5 27156.4 2974.10   3
  -3   6  -5 21678.0 864.420   4
  -3   6  -5 24722.1 903.181  12
  -3   6  -5 23655.8 751.040  13
  -3   6  -5 24905.7 840.594  14
  -3   6  -5 24310.1 942.462   8
  -3   6  -6 77.0950 115.733  12
  -3   6  -6 135.205 72.4923  14
  -3   6  -6 135.840 74.8876   8
   3  -6   6 276.699 380.754   3
  -3   6  -7 12037.4 745.250  12
  -3   6  -7 12953.8 674.643   8
  -3   6  -7 12847.2 568.042  14
   3  -6   7 11551.8 2075.74   3
   3  -6   8-267.618 784.068   3
  -3   6  -8 38.3054 134.367  12
   3  -6   8 14.2226 99.4663   5
  -3   6  -8 98.4468 85.1687   8
  -3   6  -9 9135.03 612.827  12
   3  -6   9 9321.29 534.465   5
  -3   6  -9 7784.71 469.282   8
  -3   6 -10-4.91863 98.4137  12
   3  -6  10 106.305 83.1927   5
  -3   6 -11 1718.59 243.768  12
   3  -6  11 1854.86 213.429   5
   3  -6  12 822.524 131.513   5
  -3   6 -12 613.363 135.014  12
  -3   5  11 510.299 123.711   6
  -3   5  11 537.186 122.673   9
  -3   5  10 22.3809 84.9460   6
  -3   5  10-4.55262 76.1811   9
  -3   5  10 188.713 147.984  16
  -3   5   9 37.0336 90.0319   6
  -3   5   9-68.8172 96.7919   9
  -3   5   9-132.025 154.287  16
  -3   5   8 339.512 178.652  16
  -3   5   8 144.220 127.831   6
  -3   5   8 340.560 150.553   9
  -3   5   7 346.707 173.852  16
  -3   5   7 241.769 107.624  18
  -3   5   7 37.4819 145.648  11
  -3   5   7 146.909 113.717   6
  -3   5   7 430.779 306.002   2
  -3   5   7 281.954 122.160   9
  -3   5   6 5492.16 513.553  11
  -3   5   6 4897.94 376.885  18
  -3   5   6 6507.00 459.287   6
  -3   5   6 6816.83 522.028   9
  -3   5   6 5708.15 1632.16   2
  -3   5   6 6141.98 504.213  16
  -3   5   5 4375.02 446.907  11
  -3   5   5 3926.63 337.719   6
  -3   5   5 4109.41 1194.75   2
  -3   5   5 4117.72 397.824   9
  -3   5   5 4440.59 379.139  18
  -3   5   4 11268.7 1908.84   2
  -3   5   4 12558.5 625.786   9
  -3   5   4 11467.3 690.253  11
  -3   5   4 11819.2 618.898  18
  -3   5   3 724.917 197.275  11
  -3   5   3 1157.34 196.489  18
  -3   5   3 936.191 534.792   2
  -3   5   3 869.125 163.985   9
  -3   5   3 1343.97 176.792  13
  -3   5   2 9192.92 552.091  11
  -3   5   2 10211.9 1588.29   2
  -3   5   2 8264.74 494.759  18
  -3   5   2 9725.39 494.494  19
  -3   5   2 9904.18 460.956   9
  -3   5   2 9328.37 458.657  13
  -3   5   1 891.359 154.446  18
  -3   5   1 886.887 168.104  11
  -3   5   1 887.541 148.599  19
  -3   5   1 993.823 169.397  13
  -3   5   1 943.234 461.275   2
   3  -5   0 101540. 3900.85   3
  -3   5   0 98797.5 4487.95   2
  -3   5   0 92774.6 1499.45  13
  -3   5   0 95020.5 1392.74  18
   3  -5   1 27338.2 2215.65   3
  -3   5  -1 28714.5 777.183  14
  -3   5  -1 26944.2 803.170  13
   3  -5   2 12649.2 1681.29   3
  -3   5  -2 13292.5 570.005   8
  -3   5  -2 13250.0 546.647  14
  -3   5  -2 13218.7 550.142  13
   3  -5   3 10425.0 1613.51   3
  -3   5  -3 9819.86 518.962   8
  -3   5  -3 9861.84 482.133  14
  -3   5  -3 7383.97 400.471  13
  -3   5  -4 524.327 116.456  12
  -3   5  -4 554.448 115.762  14
  -3   5  -4 614.960 140.182   8
   3  -5   4 368.326 327.994   3
  -3   5  -4 512.795 107.642  13
   3  -5   5 19454.2 2415.84   3
  -3   5  -5 18747.9 804.126  12
  -3   5  -5 15943.4 572.046  13
  -3   5  -5 19579.7 779.352   8
  -3   5  -5 20185.2 699.710  14
  -3   5  -6 47556.6 1376.10  12
  -3   5  -6 49454.3 1249.05   8
  -3   5  -6 52073.4 1096.67  14
  -3   5  -7 19950.5 923.455  12
   3  -5   7 21893.2 2711.48   3
   3  -5   7 22180.2 799.828   5
  -3   5  -7 20891.5 801.009   8
  -3   5  -8 8973.00 619.977  12
   3  -5   8 9202.49 531.061   5
   3  -5   8 9281.85 1835.29   3
  -3   5  -8 8632.21 498.112   8
  -3   5  -9 10115.4 644.363  12
   3  -5   9 9709.15 540.731   5
  -3   5  -9 8260.18 455.689   8
  -3   5 -10 3026.50 343.015  12
   3  -5  10 2853.79 294.967   5
  -3   5 -11 4672.02 398.001  12
   3  -5  11 4791.78 345.510   5
  -3   5 -12 2942.73 280.424  12
   3  -5  12 2799.98 234.951   5
  -3   4  12-11.5057 51.6120   6
  -3   4  12 14.9645 63.9468   9
  -3   4  11 101.584 81.4958   6
  -3   4  11 133.333 85.0568   9
  -3   4  10-103.715 104.448   6
  -3   4  10-34.6089 90.2880   9
  -3   4  10 40.7141 109.933  16
  -3   4   9 2316.36 302.130   6
  -3   4   9 2525.77 331.451   9
  -3   4   9 2533.85 321.192  16
  -3   4   8 9608.60 613.857  11
  -3   4   8 11296.5 643.900   6
  -3   4   8 11291.9 689.661   9
  -3   4   8 11305.6 670.683  16
  -3   4   7 1298.71 251.932  11
  -3   4   7 1673.36 250.464   6
  -3   4   7 1805.92 291.445  16
  -3   4   7 1662.26 270.190   9
  -3   4   7 1983.12 1007.31   2
  -3   4   6 7917.92 1772.43   2
  -3   4   6 8436.63 579.960  11
  -3   4   6 8753.93 532.183   6
  -3   4   6 9053.14 577.921   9
  -3   4   6 8165.71 457.290  18
  -3   4   5 8180.46 551.575  11
  -3   4   5 8938.74 473.614   6
  -3   4   5 9305.85 547.253   9
  -3   4   5 8163.86 1667.82   2
  -3   4   5 7324.47 444.352  18
  -3   4   4 941.612 194.842  11
  -3   4   4 705.140 514.793   2
  -3   4   4 871.783 160.655   9
  -3   4   4 774.973 163.497  18
  -3   4   3 1090.46 168.034  19
  -3   4   3 1089.45 194.234  11
  -3   4   3 1035.32 163.643  18
  -3   4   3 1193.51 524.552   2
  -3   4   2 27474.8 2351.05   2
   3  -4  -1 18442.6 1227.81   3
  -3   4   1 18329.5 1818.88   2
  -3   4   0 2456.13 656.391   2
   3  -4   0 2817.24 567.180   3
   3  -4   1 133089. 4604.23   3
   3  -4   2 102180. 4361.54   3
   3  -4   3 16722.4 1901.36   3
  -3   4  -4 140.295 94.3637  12
  -3   4  -4 130.783 62.8411  14
  -3   4  -4 192.837 75.3381   8
   3  -4   4-15.5102 369.996   3
  -3   4  -5 4429.17 384.330  12
   3  -4   5 4872.59 1204.48   3
  -3   4  -5 4389.62 349.123   8
  -3   4  -5 4319.97 300.475  14
  -3   4  -6 657.909 181.095  12
   3  -4   6 609.386 127.110   5
  -3   4  -6 757.287 154.798   8
   3  -4   6 591.611 501.875   3
   3  -4   7 1647.13 225.967   5
  -3   4  -7 1636.93 279.310  12
  -3   4  -7 1807.11 226.397   8
   3  -4   7 1632.92 770.377   3
  -3   4  -8 10648.9 671.035  12
   3  -4   8 11643.0 587.762   5
  -3   4  -8 10135.9 504.248   8
  -3   4  -9 825.441 212.204  12
   3  -4   9 579.948 156.677   5
  -3   4 -10 839.350 187.644  12
   3  -4  10 824.414 169.474   5
  -3   4 -11 398.780 139.984  12
   3  -4  11 442.905 120.574   5
   3  -4  12-25.1244 50.5816   5
  -3   4 -12-81.1531 80.0385  12
  -3   3  12 44.7872 68.0225   6
  -3   3  12 41.9361 59.6319   9
  -3   3  11 886.429 185.475   6
  -3   3  11 1071.40 174.300   9
  -3   3  10 1103.08 213.359   6
  -3   3  10 1257.77 221.025   9
  -3   3  10 1176.51 209.720  16
  -3   3   9 1101.95 214.210  16
  -3   3   9 1462.35 239.887   6
  -3   3   9 1333.08 248.322   9
  -3   3   9 707.339 200.020   7
  -3   3   8 130.838 132.450   7
  -3   3   8-66.6608 105.959   6
  -3   3   8-35.1445 111.550   9
  -3   3   7 3879.04 363.942  11
  -3   3   7 4144.50 364.279   6
  -3   3   7 4154.23 390.369   9
  -3   3   7 4907.46 1444.50   2
  -3   3   7 3764.09 373.529   7
  -3   3   6 7791.41 501.200  11
  -3   3   6 7421.87 471.765   7
  -3   3   6 8634.80 536.097   9
  -3   3   6 7487.56 1686.79   2
  -3   3   6 7509.31 465.376   6
  -3   3   5 48760.3 1211.68  11
  -3   3   5 49865.4 1087.02   6
  -3   3   5 46853.0 3830.35   2
  -3   3   5 49860.9 1204.49   9
  -3   3   5 45482.8 980.118  18
  -3   3   5 48375.2 1063.81   7
  -3   3   4 70.1770 249.927   2
  -3   3   3 65676.7 3621.95   2
  -3   3   2 56253.9 3135.70   2
  -3   3   1 2716.93 693.454   2
   3  -3  -1 2695.99 460.000   3
  -3   3   0 32045.1 2141.88   2
   3  -3   0 34002.8 1873.04   3
   3  -3   1 1696.62 500.495   3
   3  -3   2 182783. 5505.58   3
   3  -3   3 7.74115 240.256   3
  -3   3  -4 7185.53 423.171  12
   3  -3   4 6687.41 1231.42   3
  -3   3  -5 289.360 133.208  12
   3  -3   5 221.655 86.7134   5
   3  -3   5 452.511 472.149   3
  -3   3  -5 300.795 92.3468   8
  -3   3  -6 12759.9 658.592  12
   3  -3   6 14751.5 594.408   5
   3  -3   6 14109.2 1982.90   3
  -3   3  -6 12953.7 578.820   8
  -3   3  -7 89519.6 1855.65  12
   3  -3   7 87848.7 1550.47   5
   3  -3   7 88154.8 5210.72   3
   3  -3   8 4475.61 367.614   5
  -3   3  -8 5128.10 460.709  12
   3  -3   8 3819.85 1135.43   3
  -3   3  -9 378.839 160.560  12
   3  -3   9 321.776 133.638   5
   3  -3   9-135.074 747.408   3
  -3   3 -10 1565.70 251.892  12
   3  -3  10 1452.92 217.502   5
  -3   3 -11 849.470 183.982  12
   3  -3  11 966.501 162.887  10
   3  -3  11 751.752 152.570   5
   3  -3  12 2157.53 206.445   5
  -3   3 -12 2270.31 234.669  12
  -3   2  13 193.110 80.3075   6
  -3   2  13 48.1354 60.2866   9
  -3   2  12 422.985 125.378   6
  -3   2  12 585.063 134.129   9
  -3   2  11-57.3231 91.6460   6
  -3   2  11 12.3905 62.4748  10
  -3   2  11 32.8105 94.7952   9
  -3   2  10 26.3710 98.3326   6
  -3   2  10-44.6001 111.636   9
  -3   2  10 54.7277 94.5242  16
  -3   2  10 33.3249 112.001   7
  -3   2   9 443.340 184.728   7
  -3   2   9 481.513 168.006   6
  -3   2   9 505.094 774.681   2
  -3   2   9 245.072 138.003   9
  -3   2   8 4702.18 435.279   7
  -3   2   8 5014.73 410.243   6
  -3   2   8 5936.01 468.808   9
  -3   2   8 4001.59 1306.05   2
  -3   2   7 16107.5 743.151   7
  -3   2   7 16300.6 2600.02   2
  -3   2   7 16475.7 717.405   6
  -3   2   7 17612.7 793.586   9
  -3   2   6 9725.52 1843.74   2
  -3   2   6 10306.3 519.493   6
  -3   2   6 11049.7 597.720   9
  -3   2   6 10217.1 526.495   7
  -3   2   6 9109.28 504.719  11
  -3   2   5 6343.75 1329.82   2
  -3   2   5 7507.86 457.194   9
  -3   2   4 118668. 5141.35   2
  -3   2   3 525.711 348.150   2
  -3   2   2 36848.7 2322.84   2
   3  -2  -2 35430.3 1072.48   3
  -3   2   1 1972.66 517.401   2
   3  -2  -1 1622.50 371.926   3
  -3   2   0 40197.9 2197.45   2
   3  -2   0 41778.4 1963.17   3
   3  -2   1 8138.77 1004.01   3
   3  -2   2 17429.0 1622.29   3
   3  -2   3 183049. 5703.71   3
   3  -2   4 1420.69 638.799   3
  -3   2  -4 1711.54 210.694  12
  -3   2  -5-50.0957 110.519  12
   3  -2   5 84.2483 61.5877   5
   3  -2   5-1.89707 231.399   3
   3  -2   6 69687.6 1303.96   5
   3  -2   6 71906.5 4411.22   3
  -3   2  -6 71544.7 1533.41  12
  -3   2  -7 8723.02 574.110  12
   3  -2   7 8379.05 481.669   5
   3  -2   7 7467.34 1511.62   3
  -3   2  -8 3964.36 388.817  12
   3  -2   8 3913.32 349.189   5
  -3   2  -9 2008.13 284.121  12
   3  -2   9 1788.98 242.951   5
  -3   2 -10 171.339 115.008  12
   3  -2  10 254.603 118.789   5
   3  -2  10 244.084 104.335  10
   3  -2  11 518.421 118.865  10
  -3   2 -11 409.369 127.623  12
   3  -2  11 581.463 130.444   5
  -3   2 -12-162.543 82.3190  12
   3  -2  12 63.6188 60.3861   5
  -3   1  13 364.190 110.114   6
  -3   1  13 439.197 107.072   9
  -3   1  12 2155.43 251.488   6
  -3   1  12 2130.52 254.185   9
  -3   1  11 89.3025 88.5382   6
  -3   1  11 165.522 98.3627   9
  -3   1  10 29.1890 127.368   7
  -3   1  10 179.102 119.499   6
  -3   1  10 48.9817 103.157   9
  -3   1  10 64.3353 104.285  16
  -3   1   9 1317.42 275.684   7
  -3   1   9 1337.46 235.008   6
  -3   1   9 1509.30 252.644   9
  -3   1   9 1821.86 826.449   2
   3  -1  -8 6739.37 436.387  12
  -3   1   8 6416.43 497.272   9
  -3   1   8 5500.66 1672.21   2
  -3   1   8 6902.10 513.525   7
  -3   1   8 6661.38 457.894   6
   3  -1  -7 9570.29 494.300  12
  -3   1   7 10158.3 604.342   9
  -3   1   7 10762.0 580.978   7
  -3   1   6 22913.5 2779.51   2
  -3   1   6 24607.1 787.893   7
  -3   1   5 13086.6 1860.68   2
  -3   1   4 33240.0 2620.93   2
  -3   1   3 12816.2 1432.38   2
  -3   1   2 196244. 5020.42   2
   3  -1  -2 210879. 3249.18   3
  -3   1   1 1224.27 182.616   1
  -3   1   1 1647.71 411.872   2
   3  -1  -1 1610.44 348.180   3
  -3   1   0 512012. 7153.30   2
   3  -1   0 511493. 7088.23   3
  -3   1   0 500516. 4857.91   1
   3  -1   1 84667.3 3180.47   3
   3  -1   2 31287.7 2142.30   3
   3  -1   3 6588.76 1080.76   3
  -3   1  -4 897.507 155.538  12
   3  -1   4 909.489 528.963   3
  -3   1  -5 8141.53 504.018  12
   3  -1   5 9220.96 454.168   5
   3  -1   5 8623.12 1465.55   3
  -3   1  -6 28088.8 953.467  12
   3  -1   6 27914.9 2754.73   3
   3  -1   6 28000.0 834.027   5
  -3   1  -7 102.858 127.749  12
   3  -1   7 24.7662 71.5389   5
   3  -1   7 55.2712 224.933   3
  -3   1  -8 53199.0 1390.39  12
   3  -1   8 48784.7 1223.70   5
   3  -1   9 9272.53 538.015  10
   3  -1   9 9178.21 538.468   5
  -3   1  -9 8589.65 572.825  12
  -3   1 -10 1849.71 258.369  12
   3  -1  10 1418.32 209.866  10
   3  -1  10 1413.75 210.625   5
  -3   1 -11 331.342 118.791  12
   3  -1  11 185.422 90.2687  10
   3  -1  11 3.79392 63.3162   5
   3  -1  12 305.465 80.3574   5
   3  -1  12 153.876 67.3329  10
  -3   0  14 268.918 77.0169   6
  -3   0  13 266.516 88.7375   6
  -3   0  13 341.022 99.0204   9
  -3   0  12 2243.28 261.670   6
  -3   0  12 2002.49 248.554   9
   3   0 -11 4669.57 384.445  12
  -3   0  11 4881.95 419.906   6
  -3   0  11 4697.95 412.604   9
  -3   0  11 4360.31 443.832   7
   3   0 -10 6133.07 448.768  12
  -3   0  10 5394.76 468.990   9
  -3   0  10 6050.63 470.623   6
  -3   0  10 5734.93 517.845   7
  -3   0   9 2439.86 345.235   7
   3   0  -9 2685.31 292.149  12
  -3   0   9 2435.05 301.146   9
  -3   0   9 2141.36 1017.28   2
  -3   0   8 7781.20 538.685   7
  -3   0   8 6592.32 1713.82   2
   3   0  -8 7368.82 475.505  12
   3   0  -7 123.346 94.3693  12
  -3   0   7-145.308 428.997   2
  -3   0   7 156.513 114.434   7
  -3   0   6 34473.1 3357.19   2
  -3   0   6 38228.2 939.190   7
  -3   0   5 67337.3 3503.99   1
  -3   0   5 50112.0 3623.77   2
  -3   0   4 43694.8 2943.69   2
  -3   0   4 49183.6 2534.04   1
  -3   0   3 16666.8 1237.34   1
  -3   0   3 16468.8 1540.67   2
  -3   0   2 144570. 4029.14   2
  -3   0   2 151644. 3246.84   1
   3   0  -2 145906. 3266.34   3
  -3   0   1 83667.6 2650.27   2
   3   0  -1 87686.6 2859.05   3
  -3   0   1 85266.9 2420.01   1
   3   0   0 7706.38 917.833   3
  -3   0   0 7920.73 802.260   1
  -3   0   0 8970.70 802.986   2
   3   0   1 5040.79 795.650   3
   3   0   2 236414. 6076.02   3
   3   0   3 262585. 6993.46   3
  -3   0  -4 1345.89 193.144  12
   3   0   4 1172.90 154.340   5
   3   0   4 1380.88 591.085   3
  -3   0  -5 6312.94 431.688  12
   3   0   5 6311.33 1296.49   3
   3   0   5 6500.07 392.672   5
  -3   0  -6 8710.73 533.068  12
   3   0   6 7414.89 1468.82   3
   3   0   6 8731.32 481.688   5
  -3   0  -7 43104.4 1221.12  12
   3   0   7 42885.4 1132.78  10
   3   0   7 40292.5 3595.10   3
   3   0   7 42685.3 1124.15   5
  -3   0  -8 957.938 204.647  12
   3   0   8 1106.85 835.426   3
   3   0   8 1190.13 209.002  10
   3   0   8 1209.71 209.353   5
  -3   0  -9-33.5337 98.0317  12
   3   0   9 175.337 90.0712  10
   3   0   9 20.4026 81.5197   5
   3   0  10 1630.99 220.860  10
   3   0  10 1662.34 228.183   5
  -3   0 -10 1924.71 253.657  12
   3   0  11 183.435 93.3958   5
   3   0  11 34.8275 49.9057  10
   3   0  12 284.616 72.2916   5
  -3  -1  14 202.377 78.2255   6
  -3  -1  13 942.758 161.191   6
  -3  -1  13 823.357 147.640   9
  -3  -1  12 200.998 96.7910   6
  -3  -1  12 218.115 101.383   9
   3   1 -12 204.980 121.700  12
   3   1 -11 113.521 111.408  12
  -3  -1  11 174.255 114.489   6
  -3  -1  11 18.2580 145.688   7
  -3  -1  11 169.975 98.0514   9
   3   1 -10 2877.52 325.017  12
  -3  -1  10 2560.13 327.114   9
  -3  -1  10 2521.20 1170.64   2
  -3  -1  10 2686.17 377.052   7
   3   1  -9 7828.32 518.583  12
  -3  -1   9 7243.20 544.923   7
   3   1  -8 2910.89 313.590  12
  -3  -1   8 2590.85 314.353   7
  -3  -1   8 2762.19 1108.84   2
  -3  -1   7 1747.57 236.437   7
  -3  -1   7 1884.80 757.086   2
  -3  -1   6 49429.8 3326.93   1
  -3  -1   6 44939.9 1001.54   7
  -3  -1   5 16751.9 1686.04   1
  -3  -1   5 13203.5 1808.57   2
  -3  -1   4 9914.62 1363.20   2
  -3  -1   4 10172.1 1166.40   1
  -3  -1   3 25337.0 1845.38   2
  -3  -1   3 28176.1 1757.23   1
  -3  -1   2 131.557 201.934   1
  -3  -1   2 104.653 128.621   2
   3   1  -2 95.1069 114.933   3
  -3  -1   1 178204. 3195.34   2
  -3  -1   1 181508. 4284.25   1
   3   1   0 39261.9 2229.02   3
  -3  -1   0 39329.9 2116.98   1
   3   1   1 34757.4 2277.40   3
   3   1   2 25551.7 2158.36   3
   3   1   3 23019.4 2218.22   3
   3   1   4 82008.6 1322.83   5
  -3  -1  -4 83079.1 1403.70  12
   3   1   5 4436.57 1120.47   3
   3   1   5 4484.52 333.742  10
   3   1   5 4534.85 335.705   5
  -3  -1  -5 4308.97 347.893  12
   3   1   6 3293.88 312.572  10
   3   1   6 3329.55 312.961   5
   3   1   6 2750.82 916.815   3
  -3  -1  -6 3531.23 332.495  12
   3   1   7 835.652 177.416  10
  -3  -1  -7 855.484 181.105  12
   3   1   7 806.358 168.533   5
  -3  -1  -8 8703.41 535.281  12
   3   1   8 8352.55 528.067  10
   3   1   8 8324.13 518.309   5
   3   1   9 8598.48 524.730  10
   3   1   9 9349.29 537.058   5
   3   1  10 417.075 120.535   5
   3   1  10 318.018 106.098  10
   3   1  11 1091.70 154.199  10
   3   1  11 1177.29 164.166   5
  -3  -2  14 46.9160 47.9885   6
   3   2 -13 153.847 93.2177  12
  -3  -2  13 304.254 95.0415   6
  -3  -2  13 134.422 68.4486   9
   3   2 -12 849.917 180.477  12
  -3  -2  12 816.049 169.896   6
  -3  -2  12 643.116 156.965   9
   3   2 -11 12103.7 659.931  12
  -3  -2  11 10655.6 642.722   9
  -3  -2  11 11036.5 672.606   7
   3   2 -10 6949.79 526.372  12
  -3  -2  10 6284.49 531.048   7
   3   2  -9 3964.46 392.945  12
  -3  -2   9 3403.01 1304.92   2
  -3  -2   9 3255.53 367.863   7
   3   2  -9 3689.95 344.013   4
  -3  -2   8 1107.16 211.755   7
   3   2  -8 1290.65 227.659  12
   3   2  -8 1082.13 180.407   4
  -3  -2   8 1205.37 697.415   2
  -3  -2   8 826.822 458.612   1
   3   2  -7 21165.8 724.406   4
  -3  -2   7 20989.3 776.811   7
  -3  -2   6 27269.6 2417.40   1
  -3  -2   6 20034.6 2488.48   2
  -3  -2   6 24675.4 747.166   7
   3   2  -6 21809.7 697.032   4
  -3  -2   5 4845.47 1125.64   2
  -3  -2   5 6574.12 1094.94   1
  -3  -2   4 24696.2 1951.31   1
  -3  -2   4 19038.5 1860.72   2
  -3  -2   3 27887.6 1852.00   2
  -3  -2   3 34573.4 2217.09   1
  -3  -2   2 18371.6 1143.13   2
   3   2  -2 17094.7 1555.18   3
  -3  -2   2 20160.8 1619.95   1
   3   2  -1 19122.1 1654.95   3
  -3  -2   1 18815.1 1600.88   1
   3   2   0 126621. 4400.13   3
  -3  -2   0 128823. 4359.83   1
   3   2   1 42642.8 2724.58   3
  -3  -2  -1 41319.4 2572.11   1
   3   2   2 61834.0 3532.90   3
   3   2   3 43091.8 930.922  10
   3   2   3 46164.8 3297.72   3
   3   2   3 43411.4 944.070   5
   3   2   4 6203.89 369.123   6
   3   2   4 6648.43 391.097  10
   3   2   4 6113.63 1295.08   3
   3   2   4 6201.30 387.865   5
   3   2   5 166.158 77.2966   6
   3   2   5 104.259 73.0190  10
   3   2   5 466.024 493.470   3
   3   2   5 118.993 79.6172   5
   3   2   6 154.148 102.390   5
   3   2   6 251.575 104.969   6
   3   2   6 205.347 82.3004  10
   3   2   6-134.342 383.981   3
   3   2   7 3043.22 306.881   6
   3   2   7 3003.60 323.113  10
   3   2   7 2978.50 314.934   5
   3   2   8 42.5021 77.4053   6
   3   2   8-57.0685 108.552   5
   3   2   8-122.801 119.511  10
   3   2   9 1501.39 222.382  10
   3   2   9 1538.85 219.593   5
   3   2  10 114.008 85.3092   5
   3   2  10 38.1362 65.9524  10
   3   2  11 62.4505 62.1102   5
   3   2  11-89.5896 64.6717  10
  -3  -3  14 50.0563 60.5262   6
   3   3 -13 213.671 110.665  12
  -3  -3  13 307.039 100.714   6
  -3  -3  13 80.7864 64.2905   9
   3   3 -12 351.570 152.432  12
  -3  -3  12 378.394 125.345   6
  -3  -3  12 472.093 129.634   9
   3   3 -11 3414.63 375.360  12
  -3  -3  11 3534.03 385.762   7
  -3  -3  10 416.255 199.784   7
   3   3 -10 830.534 200.366  12
   3   3 -10 408.169 141.477   4
  -3  -3  10 456.750 593.661   2
   3   3  -9 8854.47 588.011  12
  -3  -3   9 7733.75 553.457   7
   3   3  -9 7306.76 500.118   4
   3   3  -8 14906.5 743.108  12
  -3  -3   8 15365.6 717.494   7
   3   3  -8 14685.3 668.818   4
  -3  -3   7-15.5239 91.8265   7
  -3  -3   7 127.679 201.694   1
   3   3  -7-1.74184 77.9338   4
  -3  -3   7 145.105 277.412   2
   3   3  -6 722.788 149.463   4
  -3  -3   6 939.416 161.953   7
  -3  -3   5 19498.8 2035.11   1
   3   3  -5 19605.9 634.104   4
  -3  -3   5 18708.8 607.828   7
  -3  -3   4 757.649 487.000   1
  -3  -3   4 1139.65 211.304   8
  -3  -3   4 174.235 210.611   2
  -3  -3   3 1105.21 304.859   2
  -3  -3   3 1493.04 562.560   1
  -3  -3   2 18879.2 1790.96   1
   3   3  -1 35636.2 2530.02   3
  -3  -3   1 35934.1 2494.73   1
  -3  -3   0 55934.0 3245.93   1
   3   3   0 54698.9 3266.34   3
  -3  -3  -1 23732.2 2184.41   1
   3   3   1 23666.6 2252.17   3
   3   3   1 25393.3 685.384   5
   3   3   2 26538.1 747.187   6
   3   3   2 27201.3 752.087  10
   3   3   2 33373.9 2835.76   3
   3   3   2 34147.9 837.817   5
  -3  -3  -2 33645.8 2763.27   1
   3   3   3 844.012 154.030   6
   3   3   3 1169.44 174.284  10
   3   3   3 961.003 167.601   5
   3   3   3 968.515 518.287   3
   3   3   4 37801.2 984.122   6
   3   3   4 38297.9 1013.14  10
   3   3   4 38063.0 3396.72   3
   3   3   4 36572.0 995.291   5
   3   3   5 4830.92 372.814   6
   3   3   5 4734.81 379.576  10
   3   3   5 4869.35 384.003   5
   3   3   5 4896.31 1322.34   3
   3   3   6 3543.46 342.510   6
   3   3   6 3054.92 1069.36   3
   3   3   6 3746.43 359.538  10
   3   3   6 3623.95 346.784   5
   3   3   7 1580.72 239.885   6
   3   3   7 1412.38 233.893  10
   3   3   7 1550.85 233.365   5
   3   3   8 963.980 179.254   6
   3   3   8 895.551 175.527   5
   3   3   8 948.665 183.711  10
   3   3   9 221.189 96.1972   5
   3   3   9 273.991 99.7772   6
   3   3   9 253.850 98.7563  10
   3   3  10 1616.92 187.924  10
   3   3  10 1412.33 176.559   5
   3   4 -14 162.574 79.5741  12
  -3  -4  14 59.6054 52.9286   6
   3   4 -13 363.928 109.619  12
  -3  -4  13 256.494 98.6137   6
  -3  -4  13 196.496 82.3800   9
   3   4 -12 293.571 102.905   4
   3   4 -12 476.934 156.167  12
  -3  -4  12 308.574 111.401   9
   3   4 -11 1326.85 242.311  12
  -3  -4  11 1450.93 259.859   7
   3   4 -11 1260.08 208.797   4
   3   4 -10 3621.02 388.699  12
  -3  -4  10 3278.29 397.414   7
   3   4 -10 3331.62 356.945   4
   3   4  -9 11222.7 666.717  12
  -3  -4   9 12100.1 662.713   7
  -3  -4   9 13435.4 2382.03   1
   3   4  -9 10687.3 617.104   4
   3   4  -8 3152.25 351.727  12
  -3  -4   8 3424.28 1134.08   1
  -3  -4   8 3624.30 363.658   7
  -3  -4   8 2190.38 1018.07   2
   3   4  -8 3210.31 328.759   4
  -3  -4   7 3242.56 1026.75   1
  -3  -4   7 1435.73 495.197   2
  -3  -4   7 3114.79 309.847   7
   3   4  -7 2431.66 283.956   4
  -3  -4   6 36155.2 3114.99   1
  -3  -4   6 34042.3 918.484   7
   3   4  -6 33028.0 924.842   4
  -3  -4   5 31450.7 2731.62   1
   3   4  -5 29913.1 850.134  10
  -3  -4   5 27125.1 754.675   7
   3   4  -5 28389.8 805.344   4
  -3  -4   4 22075.3 2234.72   1
   3   4  -4 19917.4 635.897   4
   3   4  -3 4071.25 288.007   4
   3   4  -3 4986.34 327.416  10
  -3  -4   3 4853.65 1025.98   1
   3   4  -2 106.538 81.3419   4
  -3  -4   2 125.271 128.313   8
  -3  -4   2 159.196 250.828   1
   3   4  -1 32959.4 832.824   6
   3   4  -1 31685.2 774.973  10
   3   4  -1 28812.2 2572.14   3
   3   4  -1 32234.0 802.107   5
  -3  -4   1 31221.9 2552.22   1
   3   4   0 53.0528 48.4354   5
   3   4   0 2.18409 68.1272   6
   3   4   0 42.0192 74.6021  10
   3   4   0 182.077 233.061   3
  -3  -4   0-9.08537 293.321   1
  -3  -4  -1 21317.9 2296.36   1
   3   4   1 22193.0 706.351  10
   3   4   1 19726.4 2307.94   3
   3   4   1 22082.4 711.887   5
   3   4   1 21917.4 711.922   6
   3   4   2 523.828 133.449   6
  -3  -4  -2 408.291 352.738   1
   3   4   2 640.342 131.175  10
   3   4   2 882.677 487.504   3
   3   4   2 761.890 149.729   5
  -3  -4  -3 11593.2 1975.26   1
   3   4   3 12704.4 592.310   6
   3   4   3 12809.4 599.275  10
   3   4   3 12351.1 2044.49   3
   3   4   3 12409.5 594.996   5
   3   4   4 16235.1 698.724   6
   3   4   4 16764.1 717.739  10
   3   4   4 15554.6 2398.66   3
   3   4   4 16088.0 710.719   5
  -3  -4  -4 15598.5 2432.46   1
   3   4   5 16029.1 725.824   6
   3   4   5 16236.1 742.008  10
   3   4   5 13307.3 2274.33   3
   3   4   5 16105.9 740.980   5
  -3  -4  -5 15719.6 2613.27   1
   3   4   6 1071.79 198.063   5
   3   4   6 994.172 192.166   6
   3   4   6 1101.14 201.750  10
   3   4   7 90.8587 80.9542   5
   3   4   7 183.084 95.4398   6
   3   4   7 107.280 109.468  10
   3   4   8 313.459 116.123   5
   3   4   8 430.629 122.893   6
   3   4   8 378.771 121.760  10
   3   4   9 109.477 72.4001   5
   3   4   9-100.932 72.0984   6
   3   4   9-92.7690 67.4565  10
   3   4  10 200.992 65.4442  10
   3   5 -14-82.2843 64.6941  12
   3   5 -13 48.3514 83.1699  12
  -3  -5  13 27.9661 57.1879   6
  -3  -5  13-6.74472 67.6742   9
   3   5 -12 82.1631 82.3830   4
   3   5 -12-7.04427 89.0711  12
   3   5 -11-54.9680 93.0913   4
   3   5 -11 11.8961 101.141  12
  -3  -5  11-157.661 129.911   7
   3   5 -10 3070.94 348.681  12
  -3  -5  10 3113.25 344.107   7
   3   5 -10 3212.64 352.076   4
  -3  -5   9 665.979 195.205   7
   3   5  -9 868.187 210.553  12
   3   5  -9 668.863 185.302   4
   3   5  -8 2564.23 327.324  12
  -3  -5   8 3501.31 1185.21   1
  -3  -5   8 2639.93 317.960   7
  -3  -5   8 1199.39 736.994   2
   3   5  -8 2706.13 308.919   4
   3   5  -7 13029.0 677.285  12
  -3  -5   7 12446.9 2047.61   1
  -3  -5   7 13559.6 645.118   7
   3   5  -7 13454.9 643.227   4
   3   5  -6 1192.70 203.791   4
   3   5  -6 1292.54 199.637  10
  -3  -5   6 1022.71 485.716   1
   3   5  -5 2856.17 289.356  10
  -3  -5   5 2552.05 848.869   1
   3   5  -5 2839.14 275.177   4
   3   5  -4 13250.9 583.724   4
   3   5  -4 13971.1 584.039  10
  -3  -5   4 15198.0 1992.28   1
  -3  -5   3 1916.02 717.097   1
   3   5  -3 1688.31 210.769  10
   3   5  -3 1589.28 190.553   4
   3   5  -2 20019.2 674.556   4
   3   5  -2 20405.3 684.889  10
   3   5  -2 20162.5 705.683   5
  -3  -5   2 20229.3 2202.57   1
   3   5  -1 2439.96 239.935   4
   3   5  -1 2242.20 251.310   6
   3   5  -1 2434.26 246.125  10
   3   5  -1 2536.01 256.062   5
  -3  -5   1 2842.06 884.529   1
   3   5   0 420.492 117.497   5
   3   5   0 278.811 111.303   6
  -3  -5   0 591.076 353.155   1
   3   5   0 364.374 117.026  10
   3   5   0 317.438 141.717   9
   3   5   1 2925.34 285.425   6
   3   5   1 2828.37 975.277   3
   3   5   1 3409.06 301.741  10
   3   5   1 2718.43 284.154   5
  -3  -5  -1 2368.85 859.153   1
   3   5   2 375.326 127.196   5
   3   5   2 186.850 418.697   3
   3   5   2 431.952 141.535   6
  -3  -5  -2 623.825 516.893   1
   3   5   2 412.605 138.139  10
   3   5   3 75680.9 1539.93   6
   3   5   3 77190.2 1547.92  10
   3   5   3 71684.2 5379.87   3
   3   5   3 74562.5 1565.13   5
  -3  -5  -3 76673.9 5504.46   1
   3   5   4 16954.5 768.969   6
  -3  -5  -4 18205.9 2854.51   1
   3   5   4 17305.3 774.489  10
   3   5   4 16357.1 2621.59   3
   3   5   4 16809.7 776.857   5
   3   5   5 3554.28 364.911   6
   3   5   5 3731.12 367.186  10
   3   5   5 3734.54 376.366   5
   3   5   6 1688.77 254.126   6
   3   5   6 1822.50 261.077  10
   3   5   6 1695.02 255.553   5
   3   5   6 1423.10 192.725  17
   3   5   7 918.761 174.260   5
   3   5   7 979.554 187.239   6
   3   5   7 1136.80 210.094  10
   3   5   8 1116.41 174.758   5
   3   5   8 1219.41 189.414   6
   3   5   8 992.307 163.892  10
   3   5   9 457.307 102.863   5
   3   5   9 575.414 113.574  10
   3   6 -13 1986.55 200.867  12
  -3  -6  13 2030.56 213.352   9
   3   6 -13 1829.26 189.242   4
   3   6 -12 333.509 121.997   4
   3   6 -12 256.999 97.2051  12
   3   6 -11 2152.66 271.746  12
   3   6 -11 1873.24 251.267   4
   3   6 -10-9.94179 114.122  12
   3   6 -10-22.8747 102.997   4
  -3  -6  10-191.062 125.768   7
   3   6  -9 776.319 184.601   4
   3   6  -9 865.810 199.955  12
  -3  -6   8 2672.82 1068.39   1
   3   6  -8 1578.55 263.956  12
   3   6  -8 1694.05 256.225   4
   3   6  -7 2201.66 304.528  12
  -3  -6   7 2386.80 973.780   1
   3   6  -7 2161.00 278.660   4
   3   6  -6 1926.21 255.750  10
  -3  -6   6 1371.13 619.894   1
   3   6  -6 1838.02 254.730   4
  -3  -6   5 20341.5 2548.61   1
   3   6  -5 21181.7 788.925  10
   3   6  -5 21317.2 800.351   4
   3   6  -4 9167.96 518.722  10
  -3  -6   4 9550.98 1680.44   1
   3   6  -4 8836.05 499.771   4
   3   6  -3 14570.6 636.149  10
   3   6  -3 14842.9 631.165   4
   3   6  -2 15247.4 648.142  10
   3   6  -2 13141.2 628.902   5
  -3  -6   2 13638.0 1987.59   1
   3   6  -2 13981.4 605.819   4
  -3  -6   1 1051.90 573.760   1
   3   6  -1 1114.16 187.910   4
   3   6  -1 940.166 175.574  10
   3   6  -1 572.918 160.026   5
  -3  -6   0 455.879 577.666   1
   3   6   0 40.8910 101.107   6
   3   6   0 29.8962 69.4618   5
   3   6   0 13.0108 93.8428   4
   3   6   0 116.974 82.8999  10
   3   6   0-28.7685 102.847   9
   3   6   1 10243.6 535.455   4
   3   6   1 9924.04 562.272   6
   3   6   1 9828.00 554.552  10
   3   6   1 9394.80 575.587   9
   3   6   1 10033.2 581.740   5
  -3  -6  -1 10292.5 1937.89   1
   3   6   2 6240.48 424.371   4
  -3  -6  -2 6224.17 1548.17   1
   3   6   2 6303.96 460.982   6
   3   6   2 6164.81 457.227  10
   3   6   2 6485.51 482.015   5
  -3  -6  -3 224.081 387.061   1
   3   6   3 196.694 88.9513   5
   3   6   3 320.176 138.610   6
   3   6   3 252.128 131.702  10
   3   6   4 2963.28 347.065   6
   3   6   4 3025.56 338.157  10
   3   6   4 2989.45 356.745   5
   3   6   5 3951.88 378.560  10
   3   6   5 3704.99 376.128   5
   3   6   5 3708.75 310.536  17
   3   6   5 3640.48 372.198   6
   3   6   6-35.7940 102.331   6
   3   6   6 41.7856 82.3102  10
   3   6   6 26.1298 58.7884  17
   3   6   6 69.9449 82.8950   5
   3   6   7 2870.43 274.109   6
   3   6   7 3040.41 291.783  10
   3   6   7 2708.13 271.745   5
   3   6   8 93.8195 59.6952   6
   3   6   8 55.8619 60.3099  10
   3   6   8 71.6066 64.4695   5
   3   7 -13-116.227 59.2100  12
  -3  -7  13-87.8430 59.3993   9
   3   7 -12 123.929 96.1085   4
   3   7 -12-46.6283 72.8643  12
   3   7 -11 426.367 136.050  12
   3   7 -11 365.682 132.189   4
   3   7 -10 630.360 170.173  12
   3   7 -10 648.575 166.937   4
   3   7  -9 320.330 132.840  12
   3   7  -9 355.472 138.196   4
   3   7  -8 994.243 220.272  12
   3   7  -8 969.890 201.192   4
   3   7  -7 1530.86 250.603  12
  -3  -7   7 1680.10 896.373   1
   3   7  -7 1828.40 264.267   4
   3   7  -6 1201.06 217.360  12
   3   7  -6 1219.97 222.943   4
   3   7  -6 1498.32 235.401  10
  -3  -7   6 965.601 496.941   1
   3   7  -5 385.466 141.823  12
   3   7  -5 378.244 138.115   4
   3   7  -5 314.244 141.620  10
   3   7  -4 9108.98 548.512  10
  -3  -7   4 7384.74 1610.47   1
   3   7  -4 9135.96 543.610   4
   3   7  -3 6516.33 471.487  10
   3   7  -3 6640.62 452.856   4
   3   7  -2 3481.29 345.389  10
   3   7  -2 3735.25 335.793   4
   3   7  -1 2980.75 318.164  10
   3   7  -1 2264.91 292.015   5
   3   7  -1 2557.67 285.508   4
   3   7   0 4048.66 388.086   6
   3   7   0 4086.65 385.608  10
   3   7   0 3801.68 387.840   5
   3   7   0 4290.34 354.066   4
  -3  -7  -1 638.251 896.073   1
   3   7   1 61.0266 94.2801   5
   3   7   1 129.213 116.550   6
   3   7   1 41.4457 89.1302  10
   3   7   2 1327.72 241.555   5
   3   7   2 1560.65 256.726   6
   3   7   2 1613.30 251.651  10
   3   7   3-22.0436 93.7578   5
   3   7   3 14.7375 112.968   6
   3   7   3 43.5964 94.9530  10
   3   7   3-46.6128 110.784  17
   3   7   4-144.548 123.636   6
   3   7   4 43.2152 76.0095   5
   3   7   4-32.4418 94.4888  10
   3   7   4 4.76018 96.2416  17
   3   7   5 2354.52 274.606  10
   3   7   5 2009.41 260.894   5
   3   7   5 1907.34 258.203   6
   3   7   5 1628.11 200.276  17
   3   7   6 454.629 130.645   6
   3   7   6 262.459 98.0077  10
   3   7   6 245.352 99.5784   5
   3   7   6 262.554 80.3348  17
   3   7   7 1688.01 181.724   6
   3   7   7 1454.40 179.471  10
   3   7   7 1325.47 167.846   5
   3   8 -12 467.837 111.181   4
   3   8 -12 555.614 117.219  12
   3   8 -11 877.565 158.719  12
   3   8 -11 838.367 158.348   4
   3   8 -10 613.478 155.782  12
   3   8 -10 643.295 155.600   4
   3   8  -9 54.5416 96.0054  12
   3   8  -9 172.201 109.947   4
   3   8  -8 235.809 128.442  12
   3   8  -8 47.2662 112.827   4
   3   8  -7 15.6672 98.7467  12
   3   8  -7 94.9324 106.815   4
   3   8  -6 192.698 97.7074   4
   3   8  -6 284.746 133.451  10
   3   8  -5 830.607 186.766   4
   3   8  -5 882.048 207.395  10
  -3  -8   5 360.728 375.154   1
   3   8  -4 1972.75 290.785  10
   3   8  -4 1830.37 258.132   4
   3   8  -3 705.100 157.630  17
   3   8  -3 968.993 205.322   4
   3   8  -3 1035.15 223.591  10
  -3  -8   3 939.754 635.717   1
   3   8  -2 4093.39 397.575  10
   3   8  -2 4123.19 375.664   4
   3   8  -1 4727.89 416.958  10
   3   8  -1 4570.81 391.266   4
   3   8   0-126.330 108.416  10
   3   8   0-132.560 127.410  17
   3   8   1 168.864 87.3774  10
   3   8   1 139.323 90.8726   5
   3   8   1 102.826 111.553  17
   3   8   2 264.037 124.785   6
   3   8   2 238.697 115.250  10
   3   8   2 299.923 130.776   5
   3   8   2 258.587 131.635  17
   3   8   3 428.549 147.600   6
   3   8   3 222.368 101.731  10
   3   8   3 247.559 118.617   5
   3   8   3 215.562 101.605  17
   3   8   4 56.0352 88.1125   6
   3   8   4 13.2778 76.1302  10
   3   8   4-25.1470 86.7379   5
   3   8   4 71.8417 82.5300  17
   3   8   5 1931.98 222.430   6
   3   8   5 1776.12 217.308  10
   3   8   5 1237.37 158.147  17
   3   8   6 161.442 71.0568  10
   3   9 -11 133.861 82.3580   4
   3   9 -10 253.663 108.019   4
   3   9  -9 928.784 182.870   4
   3   9  -8 781.142 179.982   4
   3   9  -8 274.494 106.258  13
   3   9  -7 25.7855 88.5714   4
   3   9  -6 221.263 129.327   4
   3   9  -6 118.610 117.751  10
   3   9  -5-53.0036 101.303   4
   3   9  -5-33.2837 84.4123  10
   3   9  -4 133.348 123.679   4
   3   9  -4 149.741 114.466  10
   3   9  -3 767.274 199.225   4
   3   9  -3 667.016 192.146  10
   3   9  -3 429.030 124.814  17
   3   9  -2 161.829 110.289  10
   3   9  -2 92.3524 99.3566  17
   3   9  -1 505.442 163.219  10
   3   9  -1 364.194 117.337  17
   3   9   0 476.641 130.209  17
   3   9   0 796.555 192.039  10
   3   9   1 609.418 165.402  10
   3   9   1 794.665 173.529  17
   3   9   1 227.888 112.435  13
   3   9   2 154.517 97.5516  10
   3   9   2-139.317 103.354  17
   3   9   3 632.741 143.544  10
   3   9   3 302.928 101.737  17
   3   9   4 818.029 145.176  10
   3   9   4 357.051 90.9069  17
   3  10 -10 249.861 89.5941   4
   3  10  -9 305.449 107.913   4
   3  10  -8 220.490 103.356   4
   3  10  -8-75.6998 67.9514  13
   3  10  -7 301.245 113.796   4
   3  10  -7 36.6147 114.814  13
   3  10  -6-39.2307 95.1346  13
   3  10  -6-126.970 112.160   4
   3  10  -5 715.274 163.351   4
   3  10  -5 918.839 191.015  10
   3  10  -5 335.649 131.306  13
   3  10  -4 548.459 161.542   4
   3  10  -4 452.375 149.830  10
   3  10  -4 85.1926 109.168  13
   3  10  -3 0.73286 84.7391  10
   3  10  -3 108.929 76.6267  17
   3  10  -3-47.7139 116.407  13
   3  10  -2 69.3108 90.3094  10
   3  10  -2-21.0395 69.6227  17
   3  10  -2-163.026 152.684  13
   3  10  -1 1169.36 203.560  10
   3  10  -1 1208.85 184.553  17
   3  10   0-33.2111 83.4350  10
   3  10   0 34.4719 79.6023  17
   3  10   0-73.6808 73.3093  13
   3  10   1 90.2924 73.1957  10
   3  10   1 132.868 73.5380  17
   3  10   2 52.2123 64.3266  10
   3  10   2 108.209 78.4459  17
   3  10   3 432.190 99.9848  10
   3  11  -8-0.43910 63.4168   4
   3  11  -7 474.742 116.730   4
   3  11  -7 333.669 97.6162  13
   3  11  -6-5.18435 76.2339  13
   3  11  -5 79.7972 87.2183  13
   3  11  -4-64.3525 61.1476  10
   3  11  -4 60.3617 85.7310  13
   3  11  -3 77.0116 76.7608  10
   3  11  -3 43.9661 83.0707  13
   3  11  -2 34.1930 65.4656  10
   3  11  -2 105.339 84.5039  13
   3  11  -1-21.5947 63.2242  10
   3  11  -1-79.4008 64.8714  13
   3  11   0 12.1786 59.7390  10
  -4  12   2-88.7265 79.7984  18
  -4  12   1 256.877 98.6921  18
  -4  12   1 407.950 101.531  13
  -4  12   0 1919.32 216.811  18
  -4  12   0 2223.29 247.436  13
  -4  12  -1 129.779 91.4148  18
  -4  12  -1 195.715 94.3624  13
  -4  12  -2 52.0144 84.9399  13
  -4  12  -3 3879.99 357.725  13
  -4  12  -4 104.600 80.7882  13
  -4  12  -4 52.9699 53.8548   8
  -4  12  -5-114.230 69.0722   8
  -4  12  -5 10.2811 94.1720  13
  -4  12  -6 10.7733 56.7563   8
  -4  11   4 19.7040 76.4915  18
  -4  11   4 215.451 101.584   9
  -4  11   3 2830.86 290.110  18
  -4  11   3 3068.53 278.611   9
  -4  11   2 580.884 148.377  18
  -4  11   2 345.967 115.607   9
  -4  11   2 458.323 122.168  13
  -4  11   1 228.933 118.035  18
  -4  11   1 170.033 117.015  13
  -4  11   0 150.900 104.443  18
  -4  11   0 251.423 118.559  13
  -4  11  -1 287.804 115.489  18
  -4  11  -1 471.479 177.538  13
  -4  11  -2 358.149 113.513  18
  -4  11  -2 387.107 160.311  13
  -4  11  -3 988.224 171.471   8
  -4  11  -3 1402.14 263.973  13
  -4  11  -4 2727.47 295.198   8
  -4  11  -4 3271.61 352.548  13
  -4  11  -5 4069.10 366.395   8
  -4  11  -5 4963.71 391.690  13
  -4  11  -6 3293.29 284.315  13
  -4  11  -6 2648.12 291.515   8
  -4  11  -7 3638.11 319.153   8
  -4  11  -8-4.08508 51.1897   8
  -4  10   6 232.583 107.833   9
  -4  10   5 1309.78 205.294  18
  -4  10   5 1516.39 221.471   9
  -4  10   4 1675.62 238.064   9
  -4  10   4 1513.76 238.693  18
  -4  10   3 45.0691 83.9223   9
  -4  10   3 131.034 74.0112  13
  -4  10   3 102.516 104.825  18
  -4  10   2-39.7649 102.386  18
  -4  10   2-109.913 97.3881   9
  -4  10   2 69.7614 93.5658  13
  -4  10   1 52.0273 86.2380   9
  -4  10   1 84.9881 120.141  18
  -4  10   1-15.2566 90.0026  13
  -4  10   0 3765.65 374.254  18
  -4  10   0 3736.30 428.877  13
  -4  10  -1 5192.77 418.113  18
  -4  10  -1 5331.33 521.919  13
  -4  10  -2 4171.47 353.869  18
  -4  10  -2 3862.04 355.345   8
  -4  10  -2 4605.46 490.839  13
  -4  10  -3 4684.59 346.714  18
  -4  10  -3 4616.17 461.392  13
  -4  10  -3 4339.48 426.561  14
  -4  10  -3 3901.18 377.047   8
  -4  10  -4 1558.35 266.311   8
  -4  10  -4 1554.34 257.502  14
  -4  10  -4 1775.70 285.231  13
  -4  10  -5 36.1140 94.3322  13
  -4  10  -5-26.5156 95.6411   8
  -4  10  -5 168.786 117.114  14
  -4  10  -6 1785.07 277.288   8
  -4  10  -6 1464.75 219.910  13
   4 -10   7 971.314 155.592   5
  -4  10  -7 1214.54 215.350   8
  -4  10  -8 67.8286 81.6819   8
   4 -10   8 16.3558 51.7038   5
   4 -10   9 1554.93 151.989   5
  -4  10  -9 1848.48 203.024   8
  -4   9   7 91.3363 78.9904   9
  -4   9   6 358.362 120.083  18
  -4   9   6 507.847 140.313   9
  -4   9   5 212.857 116.708   9
  -4   9   5 314.273 119.564  18
  -4   9   5 364.481 192.358  16
  -4   9   4 828.605 202.687  18
  -4   9   4 1091.85 211.142   9
  -4   9   4 1213.69 268.434  16
  -4   9   3 418.533 210.656  16
  -4   9   3 569.486 288.235  11
  -4   9   3 470.819 158.850   9
  -4   9   3 521.502 188.942  18
  -4   9   3 356.673 125.880  13
  -4   9   2 1714.47 355.724  11
  -4   9   2 1864.51 327.463  18
  -4   9   2 1412.77 229.091   9
  -4   9   2 1833.33 263.381  13
  -4   9   2 1764.01 295.271  16
  -4   9   1 4581.21 546.771  11
  -4   9   1 4087.37 363.999   9
  -4   9   1 4302.49 413.615  16
  -4   9   1 4536.69 451.486  13
  -4   9   1 4684.35 465.868  18
  -4   9   0 336.000 198.921  11
  -4   9   0 229.404 130.595  18
  -4   9   0 354.347 158.543  13
  -4   9  -1 5182.88 530.346  11
  -4   9  -1 5041.17 421.658  18
  -4   9  -1 5202.01 409.226   8
  -4   9  -1 5399.73 525.914  13
  -4   9  -2 6151.53 441.364  18
  -4   9  -2 6377.89 521.058  14
  -4   9  -2 5719.02 467.978   8
  -4   9  -2 5929.06 467.008  19
  -4   9  -2 5898.52 543.686  13
  -4   9  -3 1859.40 265.780  19
  -4   9  -3 2114.46 250.243  18
  -4   9  -3 1959.65 305.278  14
  -4   9  -3 2092.62 299.715   8
  -4   9  -3 2069.89 308.429  13
  -4   9  -4 2343.30 345.577   8
  -4   9  -4 2217.42 310.682  13
  -4   9  -4 2438.05 339.247  14
  -4   9  -5 2492.95 362.209   8
  -4   9  -5 2504.23 329.281  14
  -4   9  -5 2302.37 288.531  13
  -4   9  -6 5284.54 434.627  14
   4  -9   6 5025.65 366.316   5
  -4   9  -6 5351.30 496.620   8
  -4   9  -6 4973.25 371.777  13
   4  -9   7 694.054 141.543   5
  -4   9  -7 921.674 210.311   8
   4  -9   8 16011.2 581.193   5
  -4   9  -8 16191.7 701.445   8
   4  -9   9 998.619 139.054   5
  -4   9  -9 1060.39 168.594   8
   4  -9  10-35.1771 48.1793   5
  -4   9 -10-34.4895 43.7918   8
  -4   8   8-125.065 92.5809   9
  -4   8   7-46.3919 81.9814  18
  -4   8   7 26.1885 90.8721   9
  -4   8   7 96.7973 144.962  16
  -4   8   6 112.787 88.4599   9
  -4   8   6 13.9659 89.1734  18
  -4   8   6-200.321 172.906  16
  -4   8   5 185.699 207.333  11
  -4   8   5 243.697 98.3775   9
  -4   8   5 98.3524 113.240  18
  -4   8   5 137.881 162.215  16
  -4   8   4 1750.64 356.142  11
  -4   8   4 1449.71 246.537   9
  -4   8   4 1984.15 319.078  18
  -4   8   4 2110.74 353.618  16
  -4   8   3 4974.85 579.586  11
  -4   8   3 5390.52 532.955  18
  -4   8   3 5284.13 435.214   9
  -4   8   3 5160.17 512.368  16
  -4   8   3 4671.15 391.908  13
  -4   8   2 972.775 258.046  11
  -4   8   2 1139.99 195.617   9
  -4   8   2 1095.83 251.515  18
  -4   8   2 898.430 243.104  16
  -4   8   2 1075.92 214.874  13
  -4   8   1 1426.21 327.282  11
  -4   8   1 1841.22 292.515  18
  -4   8   1 1846.56 235.453   9
  -4   8   1 1746.43 279.106  16
  -4   8   1 1681.99 286.107  13
  -4   8   0 4179.35 348.072   8
  -4   8   0 4457.90 509.624  11
  -4   8   0 4145.24 396.795  19
  -4   8   0 4012.81 401.966  18
  -4   8   0 4524.83 452.755  13
  -4   8  -1 1398.32 278.621  11
  -4   8  -1 1411.08 220.536  18
  -4   8  -1 1674.77 256.689  14
  -4   8  -1 1287.29 217.349  19
  -4   8  -1 1462.02 272.115  13
  -4   8  -1 1279.50 206.035   8
  -4   8  -2 484.149 171.779  11
  -4   8  -2 543.361 152.955  19
  -4   8  -2 648.931 153.176  18
  -4   8  -2 556.569 166.977   8
  -4   8  -2 872.031 212.511  14
  -4   8  -2 520.839 192.878  13
  -4   8  -3 5221.18 438.466  19
  -4   8  -3 5831.73 401.700  18
  -4   8  -3 5844.15 498.173   8
  -4   8  -3 5600.76 494.187  14
  -4   8  -3 5397.73 474.732  13
  -4   8  -4 15930.6 750.018  13
  -4   8  -4 16602.1 780.790  19
  -4   8  -4 17221.0 849.403  14
  -4   8  -4 17182.5 883.812   8
  -4   8  -5 3317.67 405.810   8
  -4   8  -5 3407.34 378.760  14
  -4   8  -5 3337.63 322.199  13
  -4   8  -5 3362.36 359.709  19
  -4   8  -6 1254.76 223.279  19
   4  -8   6 1606.28 218.215   5
  -4   8  -6 1302.44 216.384  14
  -4   8  -6 1446.81 259.805   8
  -4   8  -6 1432.18 198.069  13
  -4   8  -7 951.579 191.706  19
   4  -8   7 1234.35 199.510   5
  -4   8  -7 1306.64 231.785   8
   4  -8   8 393.826 102.446   5
  -4   8  -8 434.359 136.929   8
  -4   8  -9 446.240 133.718  12
   4  -8   9 525.931 118.731   5
  -4   8  -9 551.788 133.165   8
  -4   8 -10 1184.76 147.820   8
   4  -8  10 1460.62 171.508   5
   4  -8  11 83.4559 49.4585   5
  -4   7   9 4.72013 73.5254   9
  -4   7   8 355.105 139.276   9
  -4   7   8 576.286 195.774  16
  -4   7   7 107.550 74.7923  18
  -4   7   7 118.607 118.058   9
  -4   7   7 173.672 160.000  16
  -4   7   6 2213.97 392.953  11
  -4   7   6 2226.83 316.952   9
  -4   7   6 1307.11 223.753  18
  -4   7   6 2152.93 332.267  16
  -4   7   5 4148.58 410.572  18
  -4   7   5 5229.78 568.613  11
  -4   7   5 4518.17 441.140   9
  -4   7   5 4502.71 477.410  16
  -4   7   4 10183.4 2173.51   2
  -4   7   4 11218.9 811.093  11
  -4   7   4 10675.3 632.412   9
  -4   7   4 10666.3 715.646  16
  -4   7   4 11277.0 702.709  18
  -4   7   4 9277.10 500.172  13
  -4   7   3 483.307 212.546  11
  -4   7   3-224.084 362.722   2
  -4   7   3 320.918 131.083   9
  -4   7   3 349.839 181.814  18
  -4   7   3 460.919 207.409  16
  -4   7   3 408.657 109.088  13
  -4   7   2 899.786 223.615  16
  -4   7   2 713.119 237.908  11
  -4   7   2 949.230 203.756  18
  -4   7   2 1256.25 584.992   2
  -4   7   2 1003.71 185.412   9
  -4   7   2 814.401 172.178  13
  -4   7   1 9938.28 472.511   8
  -4   7   1 9399.01 581.843  19
  -4   7   1 8830.40 668.834  11
  -4   7   1 8452.74 472.083   9
  -4   7   1 9272.61 573.289  18
  -4   7   1 9024.17 569.627  16
  -4   7   1 9175.53 581.066  13
  -4   7   0 2873.86 376.354  11
  -4   7   0 3119.36 323.579  19
  -4   7   0 2522.91 306.280  18
  -4   7   0 3121.88 298.280   8
  -4   7   0 3166.79 356.358  13
  -4   7  -1 12642.2 766.974  11
  -4   7  -1 12997.3 653.966  19
  -4   7  -1 12313.1 598.177  18
  -4   7  -1 12555.2 615.505   8
  -4   7  -1 13506.1 674.756  14
  -4   7  -1 12491.6 704.380  13
  -4   7  -2 95.9209 94.6646  11
  -4   7  -2 227.948 105.624  19
  -4   7  -2 206.338 111.087  18
  -4   7  -2 132.662 108.713   8
  -4   7  -2 138.531 112.295  14
  -4   7  -2 233.963 113.684  13
   4  -7   3 79065.2 5245.24   3
  -4   7  -3 83825.2 1720.04  19
  -4   7  -3 84791.3 1708.53  13
  -4   7  -3 81302.5 1747.85   8
  -4   7  -3 83613.5 1772.72  14
  -4   7  -4 22635.6 921.641  19
   4  -7   4 20444.3 2756.86   3
  -4   7  -4 24205.3 1009.35   8
  -4   7  -4 23807.4 939.674  14
  -4   7  -4 23781.8 860.589  13
  -4   7  -5 1121.46 216.967  19
  -4   7  -5 1123.29 239.528   8
  -4   7  -5 1134.93 211.196  14
  -4   7  -5 1259.84 198.912  13
   4  -7   5 1590.07 723.973   3
  -4   7  -6-21.4284 99.4265  12
   4  -7   6 31.8729 84.9729   5
  -4   7  -6 171.671 71.5545  13
   4  -7   6-18.0973 525.875   3
  -4   7  -6 211.075 97.8304  19
  -4   7  -6 64.6056 89.4296   8
  -4   7  -6 51.2722 63.6977  14
  -4   7  -7 8879.66 595.823  19
   4  -7   7 9857.87 535.236   5
  -4   7  -7 10460.7 614.858   8
  -4   7  -7 9215.05 614.521  12
  -4   7  -8 165.237 128.882  12
  -4   7  -8 44.4815 69.2893  19
   4  -7   8 121.833 84.8524   5
  -4   7  -8 45.8851 73.9120   8
   4  -7   9 10015.5 496.263   5
  -4   7  -9 9271.58 484.211   8
  -4   7  -9 9335.46 566.104  12
   4  -7  10 1449.67 183.021   5
  -4   7 -10 1386.25 207.230  12
   4  -7  11 172.059 65.5094   5
  -4   6  10 272.454 101.451   9
  -4   6   9 271.443 119.739   9
  -4   6   9 164.278 138.782  16
  -4   6   8 2238.83 303.687   9
  -4   6   8 2055.59 318.049  16
  -4   6   7 3312.80 436.951  11
  -4   6   7 4424.74 442.938   9
  -4   6   7 4060.99 444.085  16
  -4   6   6 1691.03 248.745  18
  -4   6   6 2170.25 383.319  11
  -4   6   6 2286.59 324.257   9
  -4   6   6 2497.44 364.300  16
  -4   6   5 221.160 202.446  11
  -4   6   5 156.601 352.486   2
  -4   6   5 128.193 120.257   9
  -4   6   5-10.6072 123.847  18
  -4   6   5 47.9334 132.151  16
  -4   6   4 3111.88 431.751  11
  -4   6   4 3724.17 391.579  18
  -4   6   4 2637.15 1033.70   2
  -4   6   4 3030.27 338.365   9
  -4   6   4 3560.49 301.370  13
  -4   6   4 3259.01 396.242  16
  -4   6   3 272.520 142.452  18
  -4   6   3 364.501 156.146  11
  -4   6   3 595.175 546.184   2
  -4   6   3 524.492 149.274   9
  -4   6   3 182.194 91.4043  13
  -4   6   2 7002.81 582.589  11
  -4   6   2 6722.65 504.772  18
  -4   6   2 5859.54 1365.03   2
  -4   6   2 6224.60 413.804   9
  -4   6   2 6845.69 487.109  19
  -4   6   2 6694.11 452.188  13
  -4   6   1 1407.76 265.206  11
  -4   6   1 1490.09 220.957  19
  -4   6   1 1229.94 213.334  18
  -4   6   1 1606.21 709.619   2
  -4   6   1 1544.73 232.099  13
  -4   6   1 1698.86 198.661   8
  -4   6   0 83654.8 1524.99  18
  -4   6   0 84038.7 1865.41  11
  -4   6   0 84958.9 1605.25  19
  -4   6   0 84942.6 1441.71   8
  -4   6   0 85340.7 1697.89  13
  -4   6  -1 48310.0 1359.29  11
  -4   6  -1 47140.8 1077.13  18
  -4   6  -1 46058.5 1132.93   8
  -4   6  -1 48184.9 1204.32  14
  -4   6  -1 46517.5 1242.81  13
  -4   6  -1 47379.2 1205.00  19
  -4   6  -2 133.814 98.0166  18
  -4   6  -2-31.0952 101.105  11
  -4   6  -2 52.2613 74.3639  19
  -4   6  -2 72.6498 73.0677   8
  -4   6  -2 117.870 96.0332  14
   4  -6   2 155.832 501.223   3
  -4   6  -2 135.202 124.479  13
  -4   6  -3 4211.80 376.309  19
  -4   6  -3 4783.90 323.003  18
  -4   6  -3 3997.53 383.053   8
  -4   6  -3 4247.09 375.776  14
  -4   6  -3 4210.18 362.632  13
   4  -6   3 4354.99 1188.04   3
  -4   6  -4 56.9152 114.469  12
  -4   6  -4 165.254 87.6311  19
  -4   6  -4 211.032 127.483   8
  -4   6  -4 174.152 109.375  14
   4  -6   4 583.881 626.141   3
  -4   6  -4 53.5793 76.2563  13
  -4   6  -5 45066.7 1265.76  12
   4  -6   5 47250.8 4056.78   3
   4  -6   5 46121.0 1114.24   5
  -4   6  -5 44970.6 1311.42   8
  -4   6  -5 44871.2 1338.25  19
  -4   6  -5 46791.7 1187.37  14
  -4   6  -5 45799.5 1072.61  13
   4  -6   6 1275.12 210.008   5
  -4   6  -6 1076.42 229.587  12
  -4   6  -6 1226.55 224.172   8
   4  -6   6 788.827 555.095   3
  -4   6  -7 664.615 223.532  12
   4  -6   7 180.173 367.249   3
   4  -6   7 690.061 160.968   5
  -4   6  -7 661.034 162.346   8
  -4   6  -8-18.0213 105.184  12
   4  -6   8 63.9702 72.3409   5
  -4   6  -8 39.5688 73.2446   8
  -4   6  -9-21.5017 93.4056  12
  -4   6  -9-61.5683 86.1762   8
   4  -6   9 41.8207 76.1836   5
  -4   6 -10 559.012 156.781  12
  -4   6 -10 270.390 97.1315  19
   4  -6  10 635.336 137.386   5
  -4   6 -11 1048.75 174.324  12
   4  -6  11 1047.52 149.985   5
  -4   5  11 678.794 130.687   9
  -4   5  10-124.284 79.8306   6
  -4   5  10 41.1485 86.0733   9
  -4   5  10 184.325 119.613  16
  -4   5   9 202.079 154.185  16
  -4   5   9 204.445 107.455   6
  -4   5   9 307.109 122.208   9
  -4   5   8 19.8193 143.326  11
  -4   5   8 72.9941 83.2224   6
  -4   5   8 31.0994 99.0660   9
  -4   5   8 55.6151 126.551  16
  -4   5   7 2300.81 329.402  16
  -4   5   7 1872.75 334.397  11
  -4   5   7 2099.92 261.014   6
  -4   5   7 2754.29 345.998   9
  -4   5   7 1316.52 181.018  18
  -4   5   6-93.2188 165.350  11
  -4   5   6 31.0455 95.9166   9
  -4   5   6 53.0920 87.7771  18
  -4   5   5 16120.1 872.559  11
  -4   5   5 15115.7 763.563   9
  -4   5   5 15747.3 711.019  18
  -4   5   4 7635.27 1673.36   2
  -4   5   4 8172.73 608.306  11
  -4   5   4 8424.69 529.000  18
  -4   5   4 8321.69 401.920  15
  -4   5   4 8256.78 523.187   9
  -4   5   4 8547.74 455.071  13
  -4   5   3 6100.07 1422.33   2
  -4   5   3 5317.66 469.419  11
  -4   5   3 5327.51 381.369   9
  -4   5   3 4737.75 393.311  18
  -4   5   3 4845.40 352.275  13
  -4   5   2 10350.9 1713.88   2
  -4   5   2 9348.08 609.732  11
  -4   5   2 9441.61 459.438   9
  -4   5   2 10348.2 550.713  19
  -4   5   2 9547.44 537.333  18
  -4   5   2 10013.6 434.614   8
  -4   5   2 9768.06 509.159  13
  -4   5   1 9014.44 496.927  19
  -4   5   1 8916.43 583.805  11
  -4   5   1 9776.37 448.580   8
  -4   5   1 9054.15 485.485  18
  -4   5   1 9011.24 507.002  13
  -4   5   1 8165.93 1489.96   2
  -4   5   0 23480.6 908.945  11
  -4   5   0 23339.9 791.188  19
  -4   5   0 23838.4 749.045  18
  -4   5   0 23089.7 723.807   8
  -4   5   0 23654.8 824.695  13
  -4   5   0 25173.4 2543.64   2
  -4   5  -1 52368.5 1060.35  18
  -4   5  -1 52640.7 1338.01  11
  -4   5  -1 53475.0 1210.74  19
  -4   5  -1 53564.1 1154.41   8
  -4   5  -1 53490.1 1240.18  13
  -4   5  -2 22491.6 847.054  11
  -4   5  -2 23455.0 831.893  19
  -4   5  -2 22486.2 674.172  18
  -4   5  -2 22390.3 780.135  14
   4  -5   2 25871.8 2441.13   3
  -4   5  -2 23046.8 797.835   8
  -4   5  -2 22490.7 785.471  13
  -4   5  -3 26840.4 944.409  19
   4  -5   3 28504.1 2761.87   3
  -4   5  -3 27012.2 730.749  18
  -4   5  -3 26823.0 906.339   8
  -4   5  -3 26126.6 859.224  14
  -4   5  -3 26414.4 821.212  13
  -4   5  -3 25505.3 801.638  12
  -4   5  -4 4177.16 360.690  12
   4  -5   4 4217.15 312.517   5
  -4   5  -4 4093.29 360.080   8
  -4   5  -4 3937.64 313.954  13
   4  -5   4 3965.50 1094.24   3
  -4   5  -5 134936. 2235.76  12
   4  -5   5 136618. 1869.64   5
   4  -5   5 143249. 6851.83   3
  -4   5  -5 146769. 1810.48  13
  -4   5  -5 138095. 2153.02   8
  -4   5  -6 37345.6 1268.19  12
   4  -5   6 40798.0 1067.28   5
   4  -5   6 40632.7 3755.40   3
  -4   5  -6 41490.5 1166.15   8
  -4   5  -7 4072.50 444.297  12
   4  -5   7 4225.57 357.454   5
   4  -5   7 5488.67 1447.68   3
  -4   5  -7 4077.29 356.898   8
  -4   5  -8 3639.91 406.525  12
   4  -5   8 3821.92 343.624   5
  -4   5  -8 3369.97 298.254   8
  -4   5  -9 38.7518 120.004  12
   4  -5   9 68.4621 90.2690   5
   4  -5  10 1673.05 213.121   5
  -4   5 -10 1564.67 238.349  12
  -4   5 -11-136.715 89.4554  12
   4  -5  11-5.77197 54.7820   5
   4  -5  12 252.410 69.4275   5
  -4   4  12 19.0259 45.2417   9
  -4   4  11-63.0081 68.9924   6
  -4   4  11-6.26699 62.4258   9
  -4   4  10 0.44436 82.1461   6
  -4   4  10-11.0133 103.062   9
  -4   4  10-60.7121 130.376  16
  -4   4   9 1228.59 212.645   6
  -4   4   9 1638.93 274.673   9
  -4   4   9 1299.87 248.143  16
  -4   4   8 1964.03 288.300  11
  -4   4   8 2336.00 293.722   6
  -4   4   8 2119.22 313.423   9
  -4   4   8 2518.16 333.246  16
  -4   4   7 4440.25 412.339   7
  -4   4   7 4522.82 452.794  11
  -4   4   7 4519.94 389.288   6
  -4   4   7 4793.22 459.041   9
  -4   4   7 4332.38 1458.13   2
  -4   4   6 7946.52 588.938  11
  -4   4   6 8165.43 570.764   9
  -4   4   6 7631.74 446.864  18
  -4   4   6 7765.41 531.308   7
  -4   4   5 6884.51 1640.12   2
  -4   4   5 6027.97 516.498  11
  -4   4   5 6942.04 494.704   9
  -4   4   5 6328.85 417.187  18
  -4   4   5 6528.38 444.369   7
  -4   4   4 1217.83 229.829  11
  -4   4   4 1078.89 619.989   2
  -4   4   4 1248.26 207.300   9
  -4   4   4 1273.78 159.856  15
  -4   4   4 1467.83 220.537  18
  -4   4   4 1333.89 175.199  13
  -4   4   4 1194.12 174.537   7
  -4   4   3 9086.81 510.622  19
  -4   4   3 8648.40 1593.06   2
  -4   4   3 8884.90 558.122  11
  -4   4   3 8935.89 395.211   8
  -4   4   3 8520.73 455.316   9
  -4   4   3 9046.84 503.733  18
  -4   4   3 9292.27 454.645  13
  -4   4   2 9152.88 1530.45   2
  -4   4   2 9695.27 571.331  11
  -4   4   2 9755.07 502.687  18
  -4   4   2 10126.4 427.836   8
  -4   4   2 10102.2 495.015  13
  -4   4   2 9767.83 498.305  19
  -4   4   1 644.800 131.210  19
  -4   4   1 598.218 146.771  11
  -4   4   1 881.365 431.731   2
  -4   4   1 510.120 110.926  18
  -4   4   1 675.197 126.455   8
  -4   4   1 850.014 170.036  13
  -4   4   0 289.149 122.050  11
  -4   4   0 296.820 347.032   2
  -4   4   0 363.074 99.5913  18
  -4   4   0 335.475 90.5527   8
  -4   4   0 357.464 109.782  19
   4  -4   0-10.5448 186.337   3
  -4   4   0 387.762 112.365  13
  -4   4  -1 27787.1 835.849  19
  -4   4  -1 27824.2 932.146  11
  -4   4  -1 26985.1 726.407  18
  -4   4  -1 27375.9 781.754   8
  -4   4  -1 26955.6 815.508  13
  -4   4  -2-14.5772 81.0680  11
  -4   4  -2 47.6061 65.4959  18
  -4   4  -2 176.286 93.2048   8
   4  -4   2-137.010 269.054   3
  -4   4  -2 33.4098 68.5659  13
   4  -4   3 19.5724 356.932   3
  -4   4  -3 106.558 87.1405  12
  -4   4  -3-90.7251 92.1733   8
  -4   4  -3 109.700 70.5866  13
  -4   4  -3 107.536 75.1719  18
   4  -4   4 173235. 1951.63   5
  -4   4  -4 170497. 2209.38   8
  -4   4  -4 175784. 1942.34  13
  -4   4  -4 170039. 2288.10  12
  -4   4  -5 48657.6 1332.04  12
   4  -4   5 48251.3 1091.34   5
   4  -4   5 51242.9 3943.08   3
  -4   4  -5 49941.3 1207.40   8
  -4   4  -6 19332.6 888.169  12
   4  -4   6 18987.0 724.780   5
   4  -4   6 20235.3 2599.99   3
  -4   4  -6 20420.2 764.441   8
  -4   4  -7 337.735 148.959  12
   4  -4   7 428.859 131.362   5
  -4   4  -7 242.937 96.8570   8
  -4   4  -8 541.312 180.563  12
   4  -4   8 637.758 156.358   5
  -4   4  -9 729.882 191.906  12
   4  -4   9 645.955 156.548   5
  -4   4 -10 177.144 125.125  12
   4  -4  10 88.4429 75.7186   5
  -4   4 -11 2111.03 240.016  12
   4  -4  11 2151.86 215.634   5
   4  -4  12 44.9450 48.8099   5
  -4   3  12 410.704 102.943   6
  -4   3  12 446.987 111.655   9
  -4   3  11 87.2531 76.7032   6
  -4   3  11 71.3049 75.9523   9
  -4   3  11 116.760 95.3270  16
  -4   3  10 1026.78 182.991   6
  -4   3  10 1277.82 230.738   9
  -4   3  10 1080.33 205.496  16
  -4   3  10 823.808 198.292   7
  -4   3   9 561.288 181.283   7
  -4   3   9 756.026 181.466   6
  -4   3   9 772.320 193.265   9
  -4   3   8-0.29038 124.770   7
  -4   3   8-96.9280 126.593  11
  -4   3   8-89.7533 106.125   6
  -4   3   8-257.704 410.711   2
  -4   3   8-76.2180 107.670   9
  -4   3   7 784.486 194.813   7
  -4   3   7 567.490 174.362  11
  -4   3   7 662.221 166.886   6
  -4   3   7 483.169 537.346   2
  -4   3   7 733.666 189.129   9
  -4   3   6 7839.10 547.747  11
  -4   3   6 7770.66 470.569   6
  -4   3   6 7218.79 421.610  18
  -4   3   6 7483.56 526.326   9
  -4   3   6 5928.92 1538.22   2
  -4   3   6 8094.43 510.614   7
  -4   3   5 614.495 130.763   7
  -4   3   5 580.630 152.931  18
  -4   3   5 500.986 152.855  11
  -4   3   5 715.903 123.898  15
  -4   3   5 101.220 245.854   2
  -4   3   5 514.880 141.443   9
  -4   3   4 10136.5 1689.15   2
  -4   3   4 10395.8 585.496  11
  -4   3   4 10999.5 457.505  13
  -4   3   4 10173.0 512.191  18
  -4   3   4 10910.4 543.041   9
  -4   3   4 10462.7 427.553  15
  -4   3   4 11226.0 497.158   7
  -4   3   3 9580.46 1524.45   2
  -4   3   3 10891.0 584.124  11
  -4   3   3 11695.8 535.475  19
  -4   3   3 11420.9 481.438  13
  -4   3   3 11195.5 511.729  18
  -4   3   3 10805.3 427.968  15
  -4   3   3 10603.6 424.410   8
  -4   3   3 11568.4 476.135   7
  -4   3   2 35319.8 1028.48  11
  -4   3   2 37479.1 901.724  18
  -4   3   2 37602.8 925.712  19
  -4   3   2 38574.4 915.255  13
  -4   3   1 8445.23 1301.93   2
  -4   3   1 9487.42 528.172  11
  -4   3   1 9262.62 426.584  18
  -4   3   1 10001.2 466.066  19
  -4   3   1 9714.52 466.247  13
  -4   3   0 131403. 1680.85  19
  -4   3   0 129070. 1541.15   8
  -4   3   0 127130. 1561.64  18
  -4   3   0 124637. 1664.03  13
  -4   3   0 126180. 4853.00   2
   4  -3   1 11348.5 1354.44   3
  -4   3  -1 10860.1 469.366   8
  -4   3  -1 12030.4 475.141  18
  -4   3  -1 11627.2 495.873  13
  -4   3  -2 322.653 104.404  18
  -4   3  -2 349.920 107.937   8
  -4   3  -2 327.637 100.770  13
   4  -3   3 38661.8 3001.36   3
  -4   3  -3 36086.7 931.785   8
  -4   3  -3 35369.7 943.939  12
  -4   3  -4 11306.6 583.193  12
  -4   3  -4 11121.4 486.450  13
   4  -3   4 11164.9 494.885   5
   4  -3   4 12226.0 1787.21   3
  -4   3  -4 11556.0 542.430   8
  -4   3  -5 5083.06 437.771  12
   4  -3   5 4933.04 351.481   5
   4  -3   5 5134.41 1242.70   3
  -4   3  -5 5091.34 376.273   8
  -4   3  -6 79669.5 1772.50  12
   4  -3   6 82648.6 1511.08   5
   4  -3   6 83289.0 5245.25   3
  -4   3  -6 84042.0 1459.14   8
  -4   3  -7 8625.99 610.362  12
   4  -3   7 8007.72 495.727   5
   4  -3   7 7021.93 1590.34   3
  -4   3  -8 8195.06 584.220  12
   4  -3   8 7697.50 492.962   5
  -4   3  -9-40.6057 98.9593  12
   4  -3   9 127.479 109.025   5
  -4   3 -10 156.162 94.9957  12
   4  -3  10 242.565 102.891   5
   4  -3  11 30.7557 60.2761   5
   4  -3  12 241.401 73.3246   5
  -4   2  12 184.883 90.3290   6
  -4   2  12 266.915 109.467   9
  -4   2  11 321.589 121.724   6
  -4   2  11 201.308 105.724   9
  -4   2  11 208.332 120.665  16
  -4   2  10 501.389 150.034   6
  -4   2  10 369.930 137.136   9
  -4   2  10 421.738 150.244  16
  -4   2  10 250.930 156.294   7
  -4   2   9 2432.04 293.527   6
  -4   2   9 2449.12 321.158   9
  -4   2   9 1979.32 331.955   7
  -4   2   8 362.775 189.081   7
  -4   2   8 448.462 151.332   6
  -4   2   8 486.264 176.455   9
  -4   2   7 4315.18 385.799  11
  -4   2   7 4686.77 388.154   6
  -4   2   7 4524.76 420.314   9
  -4   2   7 4308.21 401.762   7
  -4   2   6 6572.99 1629.51   2
  -4   2   6 7365.19 491.802  11
  -4   2   6 7497.48 462.463   6
  -4   2   6 7515.83 512.902   9
  -4   2   6 7538.47 472.911   7
  -4   2   5 3339.09 314.847  11
  -4   2   5 2819.73 255.408  18
  -4   2   5 2507.73 221.822  15
  -4   2   5 3542.40 336.327   9
  -4   2   5 3612.07 1049.57   2
  -4   2   5 3078.30 280.465   7
  -4   2   4 49835.0 1196.32  11
  -4   2   4 53120.9 1086.48  18
  -4   2   4 45688.8 1115.66   9
  -4   2   4 47793.2 1049.01  19
  -4   2   4 49397.6 920.017   8
  -4   2   4 51547.3 940.369  15
  -4   2   4 51967.5 985.887  13
  -4   2   4 48708.9 1029.51   7
  -4   2   3 35337.9 2772.80   2
  -4   2   3 37565.8 1026.96  11
  -4   2   3 35548.3 868.696  18
  -4   2   3 40190.7 907.059  19
  -4   2   3 37337.6 780.370  15
  -4   2   3 38974.1 875.175   7
  -4   2   2 35846.1 2606.72   2
  -4   2   1 18098.9 1771.78   2
   4  -2  -1 22178.9 1516.29   3
  -4   2   0-28.7738 146.369   2
   4  -2   0 253.735 198.868   3
   4  -2   1 5064.31 913.472   3
   4  -2   2 17571.0 1861.88   3
  -4   2  -2 18259.3 610.543   8
  -4   2  -3 1332.21 212.231  11
  -4   2  -3 1436.55 181.103   8
   4  -2   3 1155.04 149.624   5
   4  -2   3 1070.64 459.454   3
  -4   2  -3 1496.72 181.091  13
  -4   2  -3 1609.94 214.597  12
  -4   2  -4 9778.64 530.146  12
   4  -2   4 10075.1 472.676   5
   4  -2   4 9925.95 1621.45   3
  -4   2  -4 10285.6 483.993   8
  -4   2  -5 18191.7 783.564  12
  -4   2  -5 18860.0 646.869   8
   4  -2   5 17457.4 671.116   5
   4  -2   5 18729.4 2361.82   3
  -4   2  -6 9835.97 632.851  12
   4  -2   6 10156.5 1807.74   3
   4  -2   6 10071.0 540.808   5
  -4   2  -7 13793.1 739.380  12
   4  -2   7 13238.3 639.950   5
  -4   2  -8 1028.69 207.744  12
   4  -2   8 938.804 188.451   5
  -4   2  -9 187.584 139.279  12
   4  -2   9 13.6109 86.3697   5
  -4   2 -10 36.2124 77.1228  12
   4  -2  10 135.946 81.4574   5
   4  -2  11-9.36915 57.0001   5
  -4   1  13-4.34100 57.5857   6
  -4   1  13-5.32983 56.1275   9
  -4   1  12 101.979 75.7419   6
  -4   1  12 294.452 102.840   9
  -4   1  11 514.520 145.450   6
  -4   1  11 508.330 150.015   9
  -4   1  11 387.466 164.614   7
  -4   1  10 372.272 151.857   7
  -4   1  10 365.428 135.581   6
  -4   1  10 355.617 126.916   9
  -4   1   9 1300.89 249.604   7
  -4   1   9 1315.93 224.616   6
  -4   1   9 1638.14 990.390   2
  -4   1   9 1315.26 255.459   9
  -4   1   8 920.684 219.263   7
   4  -1  -8 1003.57 192.080  12
  -4   1   8 263.834 373.452   2
  -4   1   8 965.915 221.432   9
   4  -1  -7 10060.3 557.114  12
  -4   1   7 8662.77 586.725   9
  -4   1   7 9669.22 565.721   7
  -4   1   6 1049.85 178.626   7
  -4   1   6 1171.25 197.777  11
  -4   1   6 381.848 472.229   2
  -4   1   6 929.086 206.658   9
  -4   1   6 846.326 147.494   8
  -4   1   5 26861.9 879.308  11
  -4   1   5 28992.5 737.802  15
  -4   1   5 28317.1 722.821   8
  -4   1   5 28528.8 813.271   7
  -4   1   4 1037.65 147.263   7
  -4   1   4 710.176 140.479  11
  -4   1   4 712.255 134.506  15
  -4   1   4 503.479 267.088   2
  -4   1   4 623.982 132.876   8
  -4   1   3 13478.1 1632.41   2
  -4   1   3 15737.2 550.338   7
  -4   1   2 9088.34 1221.09   2
   4  -1  -2 11060.1 991.290   3
  -4   1   1 9549.97 1200.21   2
   4  -1  -1 10710.1 1134.63   3
   4  -1   0 46663.1 2612.23   3
   4  -1   1 160642. 5304.13   3
  -4   1  -2 40706.8 1210.02  11
   4  -1   2 37772.1 2798.19   3
  -4   1  -2 38123.9 871.558   8
  -4   1  -3 56500.4 1457.79  11
   4  -1   3 58387.7 3762.18   3
  -4   1  -3 53813.2 1051.05   8
  -4   1  -3 49833.9 1148.25  12
  -4   1  -4 76.4364 97.1184  12
  -4   1  -4-47.0559 70.7993   8
  -4   1  -4 3.55013 132.781  11
   4  -1   4 118.041 73.6502   5
   4  -1   4 184.169 389.578   3
   4  -1   5 29392.0 3028.46   3
   4  -1   5 27315.0 852.691   5
  -4   1  -5 25210.4 912.390  12
   4  -1   6 26382.1 3004.43   3
   4  -1   6 26144.8 876.304   5
  -4   1  -6 25221.2 953.430  12
   4  -1   7 3978.83 1241.72   3
   4  -1   7 3895.85 359.570   5
  -4   1  -7 3632.25 381.786  12
  -4   1  -8 929.230 204.734  12
   4  -1   8 890.629 180.802   5
   4  -1   9 2591.83 291.172   5
   4  -1  10 2985.26 272.578   5
   4  -1  11 1596.07 175.612   5
  -4   0  13 65.3782 62.1692   6
  -4   0  13 24.4880 56.8370   9
  -4   0  12 1002.18 164.174   6
  -4   0  12 841.121 155.553   9
  -4   0  11-4.08303 86.2693   6
  -4   0  11 21.2821 106.666   9
  -4   0  11-103.749 137.239   7
   4   0 -10 3332.92 338.252  12
  -4   0  10 3826.69 364.880   6
  -4   0  10 3613.95 392.947   9
  -4   0  10 3767.05 404.056   7
   4   0  -9 3093.35 337.750  12
  -4   0   9 2964.95 364.060   9
  -4   0   9 3146.77 373.155   7
   4   0  -8 19749.8 826.389  12
  -4   0   8 19110.5 904.514   9
  -4   0   8 18600.3 842.400   7
  -4   0   7 1453.51 890.862   2
  -4   0   7 2182.96 270.609   7
  -4   0   6 7770.65 465.290  11
  -4   0   6 8440.71 1701.16   2
  -4   0   6 10011.4 472.489   8
  -4   0   6 10253.5 517.928   7
  -4   0   5 754.856 136.870   7
  -4   0   5 888.121 147.610  11
  -4   0   5 1059.28 602.176   2
  -4   0   5 533.020 125.390   8
  -4   0   4 13249.9 587.146  11
  -4   0   4 13878.1 528.742   8
  -4   0   4 14328.2 522.673  15
  -4   0   4 13989.5 533.226   7
  -4   0   3 413.656 102.789   7
  -4   0   3 421.992 301.345   2
  -4   0   3 435.685 122.189  15
  -4   0   2 101652. 3647.35   2
   4   0  -2 107073. 3555.90   3
  -4   0   1 28161.1 1756.66   2
   4   0  -1 28627.7 1986.56   3
   4   0   0 19183.5 1760.84   3
  -4   0   0 17176.3 1407.79   1
   4   0   1 14104.9 1617.20   3
  -4   0  -1 13315.8 1335.92   1
   4   0   2 19466.8 2073.74   3
   4   0   3 22616.6 2404.44   3
   4   0   3 21341.4 664.324   5
   4   0   4 57209.0 4076.23   3
   4   0   4 50934.8 1117.93   5
   4   0   5 45420.9 1124.62   5
  -4   0  -5 43299.5 1204.07  12
  -4   0  -6 447.086 148.066  12
   4   0   6 242.638 102.746   5
   4   0   6 767.611 591.036   3
   4   0   7 3957.09 334.325  10
   4   0   7 3883.46 359.819   5
   4   0   7 4786.51 1365.53   3
   4   0   8-27.4365 83.9126  10
   4   0   8 98.5832 94.6790   5
   4   0   9 135.035 105.301   5
   4   0  10 352.935 105.267   5
   4   0  11 165.536 65.0298   5
  -4  -1  13 436.416 107.715   6
  -4  -1  13 328.925 100.353   9
   4   1 -12 1203.10 187.291  12
  -4  -1  12 1165.46 190.282   6
  -4  -1  12 1053.71 184.833   9
  -4  -1  12 996.622 214.727   7
  -4  -1  11 69.8764 130.706   7
   4   1 -11 22.4484 102.379  12
  -4  -1  11 67.7963 75.1104   6
  -4  -1  11-38.0715 102.151   9
  -4  -1  10 1295.92 259.912   7
  -4  -1  10 1173.74 244.883   9
   4   1 -10 1366.76 237.330  12
  -4  -1   9 1640.40 280.051   7
   4   1  -9 1913.75 279.569  12
  -4  -1   8 12.3176 104.883   7
   4   1  -8 59.4849 129.464  12
  -4  -1   8-206.077 314.879   2
  -4  -1   7 832.938 181.152   7
  -4  -1   7 144.069 513.260   2
  -4  -1   6 15346.2 2223.30   2
  -4  -1   6 20045.5 706.538   8
  -4  -1   6 19809.6 705.220   7
   4   1  -6 17154.8 631.702   4
  -4  -1   5 6820.40 401.446   8
  -4  -1   5 4490.38 341.498  11
  -4  -1   5 4495.55 1067.16   2
  -4  -1   5 6174.30 372.105   7
   4   1  -5 5582.23 342.479   4
  -4  -1   4 31126.9 2152.22   1
  -4  -1   4 31072.8 891.841  11
  -4  -1   4 32369.8 838.158   8
  -4  -1   4 30831.0 788.643   7
  -4  -1   3 2139.66 244.494   8
  -4  -1   3 1796.05 496.409   2
  -4  -1   3 2356.13 598.459   1
  -4  -1   3 2195.58 217.464   7
  -4  -1   2 3915.16 295.974   8
  -4  -1   2 2768.49 664.542   1
   4   1  -2 2217.17 566.620   3
  -4  -1   1 625.760 321.881   1
   4   1  -1 482.888 336.680   3
   4   1   0 66363.8 3527.77   3
  -4  -1   0 72060.7 3327.01   1
   4   1   1 25848.6 2322.15   3
  -4  -1  -1 26349.8 2136.74   1
  -4  -1  -2 4195.71 895.099   1
   4   1   2 5626.65 1152.47   3
   4   1   2 5565.79 327.754   5
   4   1   3 20747.2 2385.82   3
   4   1   3 19912.8 673.392   5
   4   1   4 92399.5 5324.07   3
   4   1   4 83414.2 1479.66   5
   4   1   5 106.437 93.6230  10
   4   1   5 100.898 87.4202   5
   4   1   5-79.7065 339.386   3
   4   1   6 25905.4 848.933  10
   4   1   6 24889.1 2984.98   3
   4   1   6 25059.7 891.516   5
   4   1   7 241.496 108.585  10
   4   1   7 246.017 118.522   5
   4   1   8 3591.36 313.914  10
   4   1   8 3647.25 345.419   5
   4   1   9 108.950 87.3904  10
   4   1   9 193.884 93.0509   5
   4   1  10 43.0157 58.2923   5
   4   2 -13-56.8351 71.7328  12
  -4  -2  13 92.9187 66.2717   6
  -4  -2  13 44.1164 54.7389   9
   4   2 -12 1112.77 187.338  12
  -4  -2  12 1233.06 198.099   6
  -4  -2  12 1068.84 191.927   9
  -4  -2  12 731.177 187.977   7
   4   2 -11 3132.75 336.841  12
  -4  -2  11 2882.42 335.335   9
  -4  -2  11 2681.98 333.529   7
  -4  -2  10 430.921 176.070   7
   4   2 -10 398.852 181.797  12
  -4  -2   9 638.776 204.719   7
   4   2  -9 1173.57 235.283  12
  -4  -2   9 169.494 761.205   2
   4   2  -8 12241.5 675.113  12
  -4  -2   8 11330.1 619.642   7
   4   2  -8 12126.1 599.202   4
  -4  -2   7 29415.6 930.904   7
   4   2  -7 29954.9 906.426   4
  -4  -2   6 14448.8 1867.64   1
  -4  -2   6 12930.5 631.766   8
  -4  -2   6 13791.9 592.136   7
   4   2  -6 14381.9 598.077   4
  -4  -2   5 17859.4 1901.60   1
  -4  -2   5 16977.1 671.743   8
  -4  -2   5 16882.5 612.742   7
   4   2  -5 16402.1 607.288   4
   4   2  -4 2243.76 213.384   4
  -4  -2   4 1970.00 234.197  11
  -4  -2   4 2633.03 714.972   1
  -4  -2   4 1427.70 507.567   2
  -4  -2   4 1883.63 233.366   8
  -4  -2   4 2096.04 213.572   7
  -4  -2   3 2566.98 239.977   8
  -4  -2   3 2136.23 267.998  11
  -4  -2   3 2694.46 232.342   7
   4   2  -2 3265.94 857.938   3
  -4  -2   2 4463.43 891.917   1
  -4  -2   2 3163.98 263.637   8
  -4  -2   2 4143.25 288.229   7
  -4  -2   1 284.426 68.1159   7
   4   2  -1 289.290 194.027   3
  -4  -2   1 358.301 96.9064   8
  -4  -2   1 103.732 270.572   1
  -4  -2   0 372.127 104.562   8
  -4  -2   0 358.669 346.310   1
   4   2   0 530.398 381.777   3
   4   2   1 4309.56 1008.93   3
   4   2   1 3789.02 270.933   5
  -4  -2  -1 3233.50 275.940   8
  -4  -2  -1 3971.35 933.882   1
   4   2   2 61691.6 4044.89   3
   4   2   2 60584.3 1156.34   5
  -4  -2  -2 61339.3 3878.84   1
   4   2   3 339.634 107.596   5
   4   2   3-189.915 409.104   3
   4   2   3 436.553 115.064  10
  -4  -2  -3 89.6401 304.307   1
   4   2   4 1632.66 203.963  10
   4   2   4 1711.80 232.027   5
   4   2   4 1136.59 618.685   3
   4   2   5 148.437 110.296   5
   4   2   5 95.5722 82.7086  10
   4   2   5 471.039 570.081   3
   4   2   6 705.023 172.452   5
   4   2   6 611.939 144.972  10
   4   2   6 1010.08 570.314   3
   4   2   7 498.313 134.284  10
   4   2   7 446.459 136.058   5
   4   2   8 3082.89 290.896  10
   4   2   8 3654.81 334.044   5
   4   2   9 1474.81 191.019  10
   4   2   9 1507.82 198.780   5
   4   2  10-21.6362 47.2248   5
   4   3 -13 292.759 98.6437  12
  -4  -3  13 192.914 84.3757   6
  -4  -3  13 276.695 101.122   9
   4   3 -12 110.753 85.8252  12
  -4  -3  12 51.1421 77.3048   6
  -4  -3  12-13.7912 79.1110   9
  -4  -3  12 101.314 112.726   7
  -4  -3  11 48.4021 129.686   7
   4   3 -11 104.525 100.687  12
  -4  -3  10-81.9176 120.614   7
   4   3 -10 123.242 174.184  12
   4   3 -10-21.9602 94.6693   4
   4   3  -9 2609.06 330.912  12
  -4  -3   9 2073.95 309.480   7
   4   3  -9 2568.09 301.738   4
  -4  -3   8 18.5910 109.133   7
   4   3  -8 4.02811 124.171  12
   4   3  -8-143.662 101.981   4
  -4  -3   7 4599.22 1200.76   1
  -4  -3   7 2726.89 1162.73   2
  -4  -3   7 3411.68 325.838   7
   4   3  -7 3614.68 325.679   4
  -4  -3   6 2275.98 783.068   1
  -4  -3   6 2526.30 260.676   7
   4   3  -6 2230.17 247.587   4
  -4  -3   5 13354.2 1768.56   1
  -4  -3   5 11993.1 609.069   8
  -4  -3   5 12868.5 546.085   7
   4   3  -5 12514.5 538.239   4
   4   3  -4 6119.36 371.221   4
  -4  -3   4 6722.02 443.389   8
  -4  -3   4 6109.93 446.162  11
  -4  -3   4 6418.84 1201.86   1
  -4  -3   4 6275.61 366.876   7
   4   3  -3 39270.5 913.254   4
  -4  -3   3 40914.2 2988.25   1
  -4  -3   3 35964.7 958.380   8
  -4  -3   3 39822.5 902.087   7
  -4  -3   2 397.980 96.9402   7
  -4  -3   2 204.300 188.153   1
  -4  -3   2 268.255 112.848   8
  -4  -3   1 1761.74 235.063   8
   4   3  -1 1950.63 208.040   5
   4   3  -1 1253.15 572.456   3
  -4  -3   1 1918.05 647.052   1
  -4  -3   1 1918.74 205.890   7
  -4  -3   0 283.624 83.8007   7
   4   3   0 156.090 50.1373  10
  -4  -3   0 160.440 223.317   1
   4   3   0 454.772 109.167   5
   4   3   0 150.544 188.316   3
  -4  -3   0 299.856 109.727   8
  -4  -3  -1 232.046 297.881   1
   4   3   1 124.206 97.0289   6
   4   3   1 60.3530 52.2764  10
   4   3   1 74.6365 270.295   3
   4   3   1 125.579 71.2569   5
  -4  -3  -2 1852.85 853.374   1
   4   3   2 1506.56 208.162   6
   4   3   2 1617.48 200.032  10
   4   3   2 1402.57 194.039   5
   4   3   2 1383.92 683.049   3
   4   3   3 1817.64 223.104   6
   4   3   3 2039.47 228.044  10
   4   3   3 1777.94 224.382   5
  -4  -3  -3 2376.90 972.371   1
   4   3   3 1384.76 695.845   3
  -4  -3  -4 2077.51 983.408   1
   4   3   4 2797.39 281.816   6
   4   3   4 2979.73 306.033  10
   4   3   4 2706.25 297.980   5
   4   3   4 2236.08 802.779   3
   4   3   5 6775.77 450.076   6
  -4  -3  -5 5325.60 1403.55   1
   4   3   5 7074.04 471.516  10
   4   3   5 6865.52 477.584   5
   4   3   5 6184.78 1508.00   3
   4   3   6 21632.4 778.680   6
   4   3   6 21398.2 824.483  10
   4   3   6 21602.9 853.429   5
   4   3   7 503.947 145.339   5
   4   3   7 398.778 124.077  10
   4   3   8 69.0556 59.9406  10
   4   3   8 109.273 81.4204   5
   4   3   9 58.3902 53.7591  10
   4   3   9 106.149 70.5988   5
   4   4 -13 36.5365 73.6887  12
  -4  -4  13 29.1153 53.9653   6
  -4  -4  13 119.436 69.2135   9
   4   4 -12 323.421 125.504  12
  -4  -4  12 244.666 119.593   9
   4   4 -11 1899.21 265.933  12
  -4  -4  11 1869.74 270.851   7
   4   4 -11 1708.99 231.242   4
  -4  -4  10 131.728 116.079   7
   4   4 -10 237.338 157.209  12
   4   4 -10 213.465 124.492   4
  -4  -4   9-41.4721 137.690   7
   4   4  -9 91.5318 120.812  12
   4   4  -9 55.6287 86.3848   4
   4   4  -8 3176.64 357.940  12
  -4  -4   8 4278.16 1419.73   1
   4   4  -8 3253.17 334.386   4
  -4  -4   8 3629.32 370.945   7
  -4  -4   7 3523.74 338.721   7
   4   4  -7 3860.36 346.403   4
  -4  -4   6 14165.9 621.202   7
   4   4  -6 13373.4 615.276   4
  -4  -4   5 14898.0 2014.58   1
   4   4  -5 17638.0 704.510  10
  -4  -4   5 15520.4 613.226   7
   4   4  -5 15021.8 631.782   4
   4   4  -4 12378.2 580.381  10
  -4  -4   4 12481.7 1807.13   1
  -4  -4   4 11363.3 506.460   7
   4   4  -4 11055.9 526.689   4
  -4  -4   3-15.8487 78.7629   7
  -4  -4   3-8.75422 123.937   8
   4   4  -3 61.2147 72.9588  10
   4   4  -3 128.706 85.8271   4
   4   4  -2 1634.65 206.628   4
   4   4  -2 2153.76 238.288  10
  -4  -4   2 1855.80 252.866   8
   4   4  -2 1394.77 196.562   5
  -4  -4   2 1947.97 736.876   1
  -4  -4   2 1535.95 186.962   7
  -4  -4   1 2518.23 283.324   8
   4   4  -1 2944.51 260.423  10
   4   4  -1 2961.27 281.588   5
  -4  -4   1 2581.12 779.494   1
  -4  -4   1 2554.44 238.918   7
   4   4   0 32.9672 92.1432   5
  -4  -4   0 195.000 510.620   1
   4   4   0 31.4265 73.6655  10
   4   4   0-617.384 466.156   3
  -4  -4   0-90.2136 113.253   8
  -4  -4  -1 87.7541 239.485   1
   4   4   1 28.7070 84.5835   6
   4   4   1 81.9736 60.1106  10
   4   4   1 492.775 465.174   3
   4   4   1 109.299 94.7622   5
   4   4   2 739.203 160.956   6
  -4  -4  -2 376.684 422.482   1
   4   4   2 766.924 164.880  10
   4   4   2 619.680 153.796   5
   4   4   2 326.609 390.452   3
   4   4   3 1465.72 231.133   6
   4   4   3 1376.78 209.143  10
   4   4   3 1400.96 217.461   5
   4   4   3 967.446 703.250   3
  -4  -4  -3 1747.67 894.901   1
   4   4   4 2306.04 273.759   6
   4   4   4 2672.44 300.774  10
   4   4   4 2428.02 297.699   5
   4   4   4 2137.06 969.421   3
  -4  -4  -4 3108.46 1221.55   1
   4   4   5 176.547 101.830   5
   4   4   5 30.2777 77.7564   6
   4   4   5 47.6255 82.1652  10
   4   4   6 552.016 160.450   5
   4   4   6 601.202 145.709   6
   4   4   6 541.705 137.842  10
   4   4   7 158.068 93.6146   5
   4   4   7 64.9908 67.8888  10
   4   4   8-7.02214 60.8221  10
   4   4   8-42.4533 54.0430   5
   4   4   9 82.3045 59.5125   5
   4   5 -13 295.562 87.1916  12
  -4  -5  13 548.754 109.201   6
  -4  -5  13 369.500 100.912   9
   4   5 -12 4101.43 328.187  12
   4   5 -12 3297.47 269.257   4
   4   5 -11 267.225 120.398  12
   4   5 -11 464.854 149.414   4
  -4  -5  11 306.063 124.930   7
  -4  -5  10-195.029 132.199   7
   4   5 -10 47.2329 118.223  12
   4   5 -10-2.00734 87.2997   4
  -4  -5   9 230.897 127.371   7
   4   5  -9 299.946 150.124  12
   4   5  -9 263.334 123.976   4
  -4  -5   8 330.256 142.397   7
   4   5  -8 376.115 149.050  12
  -4  -5   8-9.35777 703.736   1
   4   5  -8 490.757 151.331   4
  -4  -5   7 221.728 112.229   7
   4   5  -7 295.708 115.921   4
  -4  -5   7-5.75992 248.211   1
  -4  -5   6 200.968 109.237   7
   4   5  -6 53.1893 104.595   4
  -4  -5   6-172.950 300.141   1
   4   5  -5 245.785 114.309   4
   4   5  -5 318.455 134.080  10
  -4  -5   5 66.8986 311.240   1
   4   5  -4 8715.50 501.295  10
  -4  -5   4 7331.36 1515.50   1
   4   5  -4 8860.70 505.896   4
   4   5  -3 1240.48 197.854  10
   4   5  -3 1178.30 190.673   4
   4   5  -2 10263.6 533.818   4
   4   5  -2 9965.81 520.594  10
   4   5  -2 9592.61 537.844   5
  -4  -5   2 9233.76 1700.03   1
  -4  -5   1 285.590 324.929   1
   4   5  -1 98.5981 60.7557  10
   4   5  -1 168.925 118.981   4
   4   5  -1 109.136 94.6204   5
  -4  -5   0 2672.94 947.383   1
   4   5   0 3130.71 292.625  10
   4   5   0 2510.72 298.854   5
   4   5   1 12210.2 614.984   6
   4   5   1 14004.1 639.663  10
   4   5   1 13374.4 654.523   5
  -4  -5  -1 11530.1 2009.81   1
   4   5   2 11079.2 596.052   6
   4   5   2 12209.3 617.933  10
  -4  -5  -2 9818.51 1956.02   1
   4   5   2 9907.96 2094.81   3
   4   5   2 11791.7 633.774   5
   4   5   3 1108.81 213.021   5
   4   5   3 819.912 186.459   6
   4   5   3 1049.71 195.233  10
   4   5   3 706.629 345.861   3
  -4  -5  -3 1250.93 886.384   1
   4   5   4 537.122 157.569   5
   4   5   4 307.286 117.348   6
   4   5   4 378.790 126.115  10
   4   5   5 144.504 90.4052   6
   4   5   5 29.6921 87.2304  10
   4   5   5 156.005 99.1251   5
   4   5   6 1036.82 175.230   6
   4   5   6 1104.66 193.844   5
   4   5   6 1034.50 179.337  10
   4   5   6 1023.17 148.457  17
   4   5   7 29.2958 60.2166   5
   4   5   7 67.9874 60.5693   6
   4   5   7 42.1918 61.6953  10
   4   5   8 2367.64 211.112   5
   4   6 -13 696.310 116.807  12
  -4  -6  13 1044.22 143.693   9
   4   6 -12 76.5582 56.6318   4
   4   6 -12 48.0393 72.4587  12
   4   6 -11 74.6968 104.487  12
   4   6 -11-54.8131 90.8634   4
   4   6 -10 5440.61 431.008  12
   4   6 -10 5500.33 419.168   4
   4   6  -9-92.2949 132.159  12
   4   6  -9-3.57881 82.4343   4
   4   6  -8 1805.73 280.507  12
   4   6  -8 2113.74 282.325   4
   4   6  -7 3277.05 365.712  12
   4   6  -7 3810.33 376.423   4
   4   6  -6 206.770 132.667   4
  -4  -6   6-146.122 413.073   1
   4   6  -5 1287.01 228.329   4
   4   6  -5 1086.34 202.689  10
  -4  -6   5 641.081 586.057   1
   4   6  -4 3269.77 330.319  10
   4   6  -4 3437.60 338.211   4
   4   6  -3 3937.80 368.170  10
   4   6  -3 4102.76 353.140   4
   4   6  -2 1385.33 216.134  10
   4   6  -2 1417.49 213.940   4
   4   6  -1 2612.34 293.955   4
   4   6  -1 2571.22 291.997  10
   4   6  -1 2082.54 281.940   5
  -4  -6   1 1917.09 828.347   1
   4   6   0 14240.2 673.655   4
   4   6   0 15481.9 700.318  10
   4   6   0 14170.6 705.075   5
   4   6   1 4353.62 362.428   4
  -4  -6  -1 5400.78 1509.72   1
   4   6   1 4576.91 389.097  10
   4   6   1 4332.26 408.556   5
   4   6   2 1796.56 248.475   4
   4   6   2 1867.14 258.810   6
   4   6   2 1703.41 247.526  10
   4   6   2 1607.80 251.721   5
   4   6   3-70.5024 127.533   6
   4   6   3 50.9129 79.5178   5
   4   6   3 12.2153 88.3399   4
   4   6   3-16.2166 91.4066  10
   4   6   4-17.9492 88.7857   5
   4   6   4-0.73117 85.8715   6
   4   6   4 54.4988 103.364  10
   4   6   5 25.3751 86.8053   5
   4   6   5-21.6595 86.1049   6
   4   6   5 32.8151 74.6274  10
   4   6   5 90.0270 76.7693  17
   4   6   6 5.95538 56.1374  10
   4   6   6 7.95594 68.6261   5
   4   6   6 163.747 73.1048  17
   4   6   7 1042.33 136.300  10
   4   6   7 1205.39 158.527   5
   4   7 -12 112.985 61.3392   4
   4   7 -12 347.672 95.4494  12
   4   7 -11 947.847 159.184  12
   4   7 -11 617.109 136.222   4
   4   7 -10 1431.79 223.689  12
   4   7 -10 1388.01 205.023   4
   4   7  -9 1142.95 207.611  12
   4   7  -9 907.056 179.775   4
   4   7  -8 2426.33 302.516  12
   4   7  -8 2742.89 314.691   4
   4   7  -7 746.448 186.842  12
   4   7  -7 591.913 160.198   4
   4   7  -6 2231.61 292.934  12
   4   7  -6 2920.68 336.091   4
   4   7  -5 930.094 207.906   4
   4   7  -5 691.386 170.887  10
   4   7  -4 1554.30 245.322   4
   4   7  -4 1417.96 242.289  10
  -4  -7   4 1504.89 838.630   1
   4   7  -3 353.856 121.865   4
   4   7  -3 389.378 133.263  10
  -4  -7   3 423.709 332.228   1
  -4  -7   2 1053.60 633.117   1
   4   7  -2 877.458 191.718   4
   4   7  -2 739.083 190.674  10
   4   7  -1-32.2997 103.738   4
   4   7  -1 112.189 101.195  10
   4   7   0 2202.61 285.520  10
   4   7   0 1784.66 243.613   4
   4   7   0 1478.24 259.183   5
   4   7   1 589.916 149.479   4
   4   7   1 433.276 143.191  10
   4   7   1 533.431 165.309   5
   4   7   2 4111.20 369.976  10
   4   7   2 3626.81 381.438   5
   4   7   3 478.030 135.700  10
   4   7   3 315.609 120.511   5
   4   7   3 337.900 119.054  17
   4   7   4 2587.72 273.145  10
   4   7   4 2298.18 281.238   5
   4   7   4 2090.89 228.671  17
   4   7   5 337.039 100.178  10
   4   7   5 314.151 118.354   5
   4   7   5 204.606 79.7414  17
   4   7   6 91.8826 57.7097  10
   4   7   6 98.5519 58.5055   5
   4   8 -11 69.8038 65.3627  12
   4   8 -11 227.545 89.1467   4
   4   8 -10 581.521 128.666  12
   4   8 -10 534.047 139.808   4
   4   8  -9 1145.48 187.042  12
   4   8  -9 1515.58 220.185   4
   4   8  -8 360.969 131.458  12
   4   8  -8 361.725 139.214   4
   4   8  -7 2193.31 263.424  12
   4   8  -7 3092.91 329.211   4
   4   8  -6 122.725 107.815   4
   4   8  -5 262.362 130.162   4
   4   8  -5 216.078 120.937  10
   4   8  -4 321.513 153.056   4
   4   8  -4 213.572 115.463  10
   4   8  -3 75.4539 112.690   4
   4   8  -3 92.1846 101.973  10
   4   8  -2 1284.01 222.071   4
   4   8  -2 1481.43 240.004  10
   4   8  -1-10.2931 96.6216   4
   4   8  -1 75.2606 82.0409  10
   4   8   0 34.6911 84.9347   4
   4   8   0 248.712 115.057  10
   4   8   0 42.0478 99.8432  17
   4   8   1 287.923 121.958  10
   4   8   1 428.994 151.999  17
   4   8   2 1913.29 240.491  10
   4   8   2 1648.48 225.808  17
   4   8   3 42.6322 66.3333  10
   4   8   3-69.4829 79.0243  17
   4   8   4 223.277 80.5552  10
   4   8   4 18.1689 69.9586  17
   4   9 -10 100.729 66.7579   4
   4   9  -9 680.315 147.480   4
   4   9  -8 93.0342 81.6311   4
   4   9  -8 12.7753 59.6903  13
   4   9  -7-66.5373 100.033   4
   4   9  -6 88.7997 96.7329   4
   4   9  -5 2960.20 307.181  10
   4   9  -5 2834.42 307.300   4
   4   9  -4 321.707 120.432   4
   4   9  -4 317.470 126.719  10
   4   9  -3-18.9137 86.7880   4
   4   9  -3 101.035 82.1517  10
   4   9  -3 20.2774 70.1469  17
   4   9  -2 261.064 114.395   4
   4   9  -2 296.393 118.109  10
   4   9  -2 268.249 88.5869  17
   4   9  -1-1.65225 80.2518  10
   4   9  -1 31.6168 89.8900  17
   4   9   0 307.080 114.842  10
   4   9   0 134.114 84.0094  17
   4   9   0 56.4111 81.9539  13
   4   9   1-49.4488 68.6976  10
   4   9   1-77.2659 69.4774  17
   4   9   2 142.917 73.7771  10
   4   9   2-145.722 83.8747  17
   4   9   3 20.1970 49.5639  10
   4   9   3 23.6197 52.1537  17
   4  10  -9 66.9789 65.2088   4
   4  10  -8 296.381 92.4511   4
   4  10  -7 923.555 159.385   4
   4  10  -7 95.2507 65.8952  13
   4  10  -6 66.6097 77.9571   4
   4  10  -6 86.1683 82.9721  13
   4  10  -5 212.707 104.796   4
   4  10  -5 10.4878 85.0582  13
   4  10  -4-16.6981 71.4046   4
   4  10  -4 0.77780 70.1524  10
   4  10  -4-11.8775 77.0463  13
   4  10  -3 179.951 81.8876  10
   4  10  -3 308.108 125.371  13
   4  10  -2 113.792 80.0666  10
   4  10  -2 153.226 84.3048  17
   4  10  -2 136.090 95.3850  13
   4  10  -1 22.3341 59.0848  10
   4  10  -1 49.0263 58.2696  17
   4  10  -1 103.213 62.6516  13
   4  10   0-17.0102 63.2922  10
   4  10   0-96.5680 53.3087  17
   4  10   1 6.77422 53.8358  10
   4  10   1-14.2816 52.5174  17
   4  11  -5 42.2111 63.2383  13
   4  11  -4 240.495 86.2276  13
  -5  12  -1 2099.49 228.343  13
  -5  12  -2-78.3824 96.8889  13
  -5  12  -3 899.802 164.528  13
  -5  12  -4-80.7855 90.0443  13
  -5  11   3 796.347 152.218  18
  -5  11   2 108.314 86.7908  18
  -5  11   2 265.707 100.925  13
  -5  11   1 687.568 160.281  18
  -5  11   1 454.324 127.746  13
  -5  11   0 4378.59 353.809  18
  -5  11   0 5105.22 413.940  13
  -5  11  -1 551.142 139.610  18
  -5  11  -1 538.085 154.466  13
  -5  11  -2 788.927 186.874  13
  -5  11  -2 629.428 131.163  18
  -5  11  -3 1194.33 178.731   8
  -5  11  -3 1526.56 236.179  13
  -5  11  -4 161.673 93.9616   8
  -5  11  -4 235.077 106.812  13
  -5  11  -5 113.043 75.9206  13
  -5  11  -5-104.837 82.9180   8
  -5  11  -6 2310.02 238.701   8
  -5  11  -7 448.312 101.336   8
  -5  10   5 539.239 122.842  18
  -5  10   4-252.211 137.379  18
  -5  10   3 39.8809 93.7019  18
  -5  10   3-1.56475 84.4970  13
  -5  10   2-177.084 108.368  13
  -5  10   2 43.6949 116.245  18
  -5  10   1 209.670 250.388  11
  -5  10   1 234.407 143.811  18
  -5  10   1 18.3049 93.9335  13
  -5  10   0 847.181 273.207  11
  -5  10   0 867.020 200.091  18
  -5  10   0 691.676 197.505  13
  -5  10  -1 6781.47 562.172  11
  -5  10  -1 6971.82 556.467  13
  -5  10  -1 6507.63 444.163  18
  -5  10  -2 14358.4 609.563  18
  -5  10  -2 13091.1 622.043   8
  -5  10  -2 14393.3 806.480  13
  -5  10  -3 402.045 129.851   8
  -5  10  -3 257.315 148.125  13
  -5  10  -4-14.2628 87.4971   8
  -5  10  -4-64.2776 91.2745  13
  -5  10  -5 1179.94 195.195  13
  -5  10  -5 1226.97 215.606   8
  -5  10  -6 317.487 103.587  13
  -5  10  -6 18.4907 72.6045   8
  -5  10  -7 189.106 101.171   8
  -5  10  -8 108.518 63.2587   8
  -5   9   6 186.405 87.9790   9
  -5   9   6 204.626 91.8028  18
  -5   9   5 108.793 86.4529   9
  -5   9   5 54.0743 85.4516  18
  -5   9   5 20.5343 141.755  16
  -5   9   4 145.967 196.215  11
  -5   9   4-1.13040 78.2761   9
  -5   9   4-193.439 118.146  18
  -5   9   4-65.0166 163.170  16
  -5   9   3 39.9742 174.546  11
  -5   9   3 23.8858 123.871  18
  -5   9   3 24.4511 154.605  16
  -5   9   3 68.9916 80.1802  13
  -5   9   2 4548.84 536.746  11
  -5   9   2 4784.83 456.671  18
  -5   9   2 3468.65 382.531  16
  -5   9   2 4209.88 389.715  13
  -5   9   2 3800.92 309.281  15
  -5   9   1 3139.94 462.457  11
  -5   9   1 3257.91 365.218  18
  -5   9   1 3348.09 383.384  13
  -5   9   0 2011.05 376.032  11
  -5   9   0 1919.11 285.512  18
  -5   9   0 1710.79 216.204   8
  -5   9   0 2141.73 330.862  13
  -5   9  -1 21105.4 1031.70  11
  -5   9  -1 19863.0 788.423  18
  -5   9  -1 19207.7 765.453   8
  -5   9  -1 20802.0 998.548  13
  -5   9  -2 2121.95 252.204  18
  -5   9  -2 2003.17 280.722  19
  -5   9  -2 1961.55 260.927   8
  -5   9  -2 2115.28 328.712  13
  -5   9  -3 6882.22 507.743  19
  -5   9  -3 8023.27 452.142  18
  -5   9  -3 7352.80 524.761   8
  -5   9  -3 6955.71 530.729  13
  -5   9  -4 698.220 162.446  19
  -5   9  -4 925.693 213.696   8
  -5   9  -4 866.680 178.308  13
  -5   9  -5 10662.0 603.182  19
  -5   9  -5 10707.5 659.514   8
  -5   9  -5 10664.9 537.913  13
  -5   9  -6 2446.32 274.058  19
  -5   9  -6 3121.96 335.804   8
  -5   9  -6 3292.02 278.679  13
  -5   9  -7 482.532 130.554   8
  -5   9  -8 316.141 91.0542   8
  -5   9  -9 354.295 83.2476   8
  -5   8   8 43.1060 54.8923   9
  -5   8   7-83.2233 67.8146  18
  -5   8   7-29.3024 79.4199   9
  -5   8   7-13.2275 117.980  16
  -5   8   6 185.149 125.212  18
  -5   8   6 168.329 98.7680   9
  -5   8   6 91.3045 137.092  16
  -5   8   5 346.932 201.001  11
  -5   8   5 260.891 122.608   9
  -5   8   5 97.7890 110.654  18
  -5   8   5 235.189 150.105  16
  -5   8   4-28.4981 192.880  11
  -5   8   4 18.8180 75.2306   9
  -5   8   4 272.201 181.429  16
  -5   8   4-180.793 99.0451  13
  -5   8   4-180.026 153.403  18
  -5   8   3 116.610 187.480  11
  -5   8   3 8.12519 141.631  16
  -5   8   3 94.6673 99.0929  13
  -5   8   3 38.2574 132.466  18
  -5   8   3 12.5926 70.5711  15
  -5   8   2 4185.64 518.339  11
  -5   8   2 3859.71 435.810  18
  -5   8   2 3649.02 395.310  16
  -5   8   2 3935.99 386.527  13
  -5   8   1 4.34091 169.432  11
  -5   8   1 45.6376 114.550  18
  -5   8   1 122.716 114.364  13
  -5   8   0 1447.25 210.676   8
  -5   8   0 1529.18 322.900  11
  -5   8   0 1526.19 261.489  19
  -5   8   0 1403.38 241.102  18
  -5   8   0 1595.39 294.755  13
  -5   8  -1 3354.41 438.080  11
  -5   8  -1 3365.15 369.238  19
  -5   8  -1 3543.39 344.527  18
  -5   8  -1 3820.15 354.395   8
  -5   8  -1 3765.55 421.928  13
  -5   8  -2 3295.25 407.175  11
  -5   8  -2 3011.73 351.766  19
  -5   8  -2 2908.46 298.142  18
  -5   8  -2 3478.21 369.800   8
  -5   8  -2 3430.85 386.641  13
  -5   8  -3 1862.51 286.253  19
  -5   8  -3 2048.84 249.985  18
  -5   8  -3 2014.67 301.749   8
  -5   8  -3 1919.71 285.361  13
  -5   8  -4 126.629 96.6885  19
  -5   8  -4 110.578 106.454   8
  -5   8  -4 102.362 103.605  13
  -5   8  -5 8391.13 579.183  19
  -5   8  -5 8736.50 601.541   8
  -5   8  -5 8852.43 493.048  13
  -5   8  -6 1454.30 244.009  19
  -5   8  -6 1547.91 242.085   8
  -5   8  -6 1395.71 181.967  13
  -5   8  -7-9.45635 72.5402   8
  -5   8  -7 89.7142 96.6674  19
  -5   8  -8 2564.32 248.908   8
   5  -8   8 2457.82 215.095   5
   5  -8   9 5.83236 41.5041   5
  -5   8  -9 141.581 75.5389   8
  -5   7   9 71.0738 70.0309   9
  -5   7   9 44.5082 99.1131  16
  -5   7   8-113.393 87.2598   9
  -5   7   8-33.5919 109.549  16
  -5   7   7 420.099 182.972  11
  -5   7   7 284.751 110.104  18
  -5   7   7 461.924 128.246   9
  -5   7   7 327.980 157.717  16
  -5   7   6 459.291 229.944  11
  -5   7   6 520.429 158.480   9
  -5   7   6 314.001 141.377  18
  -5   7   6 573.373 207.841  16
  -5   7   5 6.11079 163.206  11
  -5   7   5-12.7191 101.989   9
  -5   7   5 6.82865 107.498  18
  -5   7   5-17.8800 151.184  16
  -5   7   4 246.173 173.579  16
  -5   7   4 73.1125 156.440  11
  -5   7   4-42.7431 99.4510   9
  -5   7   4-57.0064 130.921  18
  -5   7   4 3.60562 79.0103  13
  -5   7   3 5249.79 562.564  11
  -5   7   3 4477.07 337.910  15
  -5   7   3 4610.32 456.267  18
  -5   7   3 5269.02 514.992  16
  -5   7   3 4654.86 395.414  13
  -5   7   2 301.007 162.918  11
  -5   7   2 717.891 214.815  18
  -5   7   2 422.098 169.351  16
  -5   7   2 519.713 164.767  13
  -5   7   1 2568.17 421.977  11
  -5   7   1 2802.83 347.843  18
  -5   7   1 2532.53 321.003  19
  -5   7   1 2408.53 301.688  16
  -5   7   1 2574.62 265.987   8
  -5   7   1 3099.20 370.336  13
  -5   7   0 15468.6 937.632  11
  -5   7   0 14626.0 746.668  19
  -5   7   0 13912.0 686.957  18
  -5   7   0 15322.8 664.563   8
  -5   7   0 14799.3 787.804  13
  -5   7  -1 106.250 109.630  11
  -5   7  -1 113.290 99.2770  18
  -5   7  -1 224.462 116.237   8
  -5   7  -1-7.73382 72.2438  19
  -5   7  -1-31.3488 116.779  13
  -5   7  -2 9091.98 640.940  11
  -5   7  -2 8057.65 573.688  19
  -5   7  -2 8013.95 474.780  18
  -5   7  -2 8398.54 557.248   8
  -5   7  -2 8377.00 577.107  13
  -5   7  -3 38987.8 1277.23  19
  -5   7  -3 40704.7 1270.52   8
  -5   7  -3 42449.8 1045.66  18
  -5   7  -3 39076.6 1159.73  13
  -5   7  -4 3677.94 404.527  19
  -5   7  -4 3647.01 392.447   8
  -5   7  -4 3819.75 345.486  13
  -5   7  -5 9.66157 62.8128  19
  -5   7  -5-65.2417 100.929   8
  -5   7  -5 119.672 88.4047  13
  -5   7  -6 2578.92 329.429  19
   5  -7   6 3126.80 288.856   5
  -5   7  -6 3032.84 336.908   8
  -5   7  -7 578.933 158.590  19
   5  -7   7 915.766 166.106   5
  -5   7  -7 619.693 152.878   8
  -5   7  -8 118.243 75.3073  19
   5  -7   8 124.513 74.6462   5
  -5   7  -8 231.985 96.8577   8
  -5   7  -9 2420.13 244.356  19
   5  -7   9 3060.77 239.352   5
  -5   7  -9 2878.98 227.764   8
   5  -7  10 55.8426 49.4739   5
  -5   6  10-35.8288 65.0107   9
  -5   6   9 60.0889 73.7883   9
  -5   6   9 181.673 140.568  16
  -5   6   8 112.567 91.2136   9
  -5   6   8 129.823 133.715  16
  -5   6   7 1782.00 309.520  11
  -5   6   7 1946.00 280.277   9
  -5   6   7 1216.23 195.021  18
  -5   6   7 1761.46 299.084  16
  -5   6   6 264.659 184.717  11
  -5   6   6 168.204 104.296   9
  -5   6   6 261.109 117.945  18
  -5   6   6 163.786 169.233  16
  -5   6   5 44.2028 129.775  11
  -5   6   5 158.075 95.3941   9
  -5   6   5 11.7089 107.629  18
  -5   6   5 163.974 155.172  16
  -5   6   4 2426.09 377.640  11
  -5   6   4 2388.89 323.111  18
  -5   6   4 1510.06 791.580   2
  -5   6   4 2246.20 278.477   9
  -5   6   4 1899.17 209.840  15
  -5   6   4 1989.46 258.265  13
  -5   6   3 78.7456 156.558  11
  -5   6   3 128.911 526.719   2
  -5   6   3 122.096 117.599  18
  -5   6   3 132.442 96.8602  15
  -5   6   3 177.675 111.975  13
  -5   6   2 13253.5 704.930  18
  -5   6   2 14288.8 867.632  11
  -5   6   2 13966.3 717.956  19
  -5   6   2 14046.8 582.235   8
  -5   6   2 13922.8 688.187  13
  -5   6   2 11944.3 2166.51   2
  -5   6   1 6024.83 548.756  11
  -5   6   1 5915.32 465.763  19
  -5   6   1 5964.93 451.408  18
  -5   6   1 6220.08 404.648   8
  -5   6   1 5886.63 469.952  13
  -5   6   0 16229.5 898.177  11
  -5   6   0 15899.6 751.172  19
  -5   6   0 15238.9 691.234  18
  -5   6   0 16396.8 679.675   8
  -5   6   0 16106.8 773.895  13
  -5   6  -1 10098.4 692.577  11
  -5   6  -1 9915.32 617.678  19
  -5   6  -1 9861.24 526.268  18
  -5   6  -1 10304.5 562.823   8
  -5   6  -1 9688.55 596.799  13
  -5   6  -2 229.309 118.752  11
  -5   6  -2 276.941 129.005  18
  -5   6  -2 302.754 129.677  19
  -5   6  -2 386.310 150.072   8
  -5   6  -2 100.093 103.371  13
  -5   6  -3 1560.86 200.402  18
  -5   6  -3 1334.05 233.166   8
   5  -6   3 1659.86 708.836   3
  -5   6  -3 1242.56 220.591  13
  -5   6  -3 1220.31 234.350  19
  -5   6  -4 6525.87 496.920   8
  -5   6  -4 6553.07 535.107  19
  -5   6  -4 6532.91 434.444  13
  -5   6  -5 1488.67 269.475  19
  -5   6  -5 1723.12 271.798   8
  -5   6  -5 1547.72 202.254  13
   5  -6   5 1127.34 339.040   3
   5  -6   6 3552.64 308.465   5
  -5   6  -6 3682.23 355.743   8
  -5   6  -6 3363.58 397.802  19
   5  -6   7 3475.18 310.433   5
  -5   6  -7 3172.44 379.008  19
  -5   6  -7 3831.69 334.712   8
  -5   6  -8 1505.68 195.019   8
   5  -6   8 1526.74 201.320   5
  -5   6  -8 1070.76 218.644  19
   5  -6   9 6072.48 360.392   5
  -5   6  -9 4980.93 394.038  19
   5  -6  10 1144.18 147.110   5
  -5   6 -10 931.144 141.085  19
  -5   5  10-0.20390 65.1475   9
  -5   5  10 224.987 114.581  16
  -5   5   9 2.32383 105.053  16
  -5   5   9-33.2200 68.9509   9
  -5   5   8 107.112 121.655  11
  -5   5   8 96.7508 116.995   9
  -5   5   8 95.4595 117.662  16
  -5   5   7 764.073 223.220  11
  -5   5   7 786.532 187.397   9
  -5   5   7 609.724 135.954  18
  -5   5   6-41.3492 105.828  18
  -5   5   6 3.48697 149.576  11
  -5   5   6 5.16678 104.145   9
  -5   5   5 2024.29 336.935  11
  -5   5   5 2320.07 224.874  15
  -5   5   5 1639.84 254.212   9
  -5   5   5 2391.02 291.450  18
  -5   5   5 2120.42 228.837  13
  -5   5   4-112.472 136.775  11
  -5   5   4 152.812 362.817   2
  -5   5   4-14.8587 87.8039   9
  -5   5   4 112.421 119.084  18
  -5   5   4 57.2712 83.1408  15
  -5   5   4-23.4902 90.6611  13
  -5   5   3 7444.20 407.284   8
  -5   5   3 6894.58 1639.03   2
  -5   5   3 7366.97 595.115  11
  -5   5   3 7359.32 520.192  19
  -5   5   3 6961.12 493.114  18
  -5   5   3 7128.58 421.817  15
  -5   5   3 6969.78 460.484  13
  -5   5   2 60888.2 1673.53  11
  -5   5   2 59217.4 1413.21  19
  -5   5   2 60275.7 1411.61  18
  -5   5   2 61938.0 1214.18   8
  -5   5   2 62445.5 1396.19  13
  -5   5   2 56364.9 4423.86   2
  -5   5   1 5021.03 400.916  19
  -5   5   1 5171.41 489.877  11
  -5   5   1 4254.01 1214.61   2
  -5   5   1 5446.58 419.642  18
  -5   5   1 5129.99 361.239   8
  -5   5   1 5568.67 436.874  13
  -5   5   0 15834.6 657.610   8
  -5   5   0 16673.1 864.287  11
  -5   5   0 15842.7 666.958  18
  -5   5   0 16604.1 745.273  19
  -5   5   0 15825.5 727.006  13
  -5   5  -1 20950.0 948.980  11
  -5   5  -1 20322.8 847.675  19
  -5   5  -1 19544.1 711.822  18
  -5   5  -1 20735.7 778.765   8
  -5   5  -1 19440.0 805.841  13
  -5   5  -1 20515.4 749.084   7
  -5   5  -2 2377.96 311.469  19
  -5   5  -2 2652.65 255.125  18
  -5   5  -2 2603.08 321.610  11
  -5   5  -2 2396.65 279.784   8
   5  -5   2 2964.77 892.298   3
  -5   5  -2 2526.74 277.039  13
  -5   5  -2 2561.47 282.406   7
  -5   5  -3 51453.9 1365.35  11
  -5   5  -3 48367.2 1091.23  18
   5  -5   3 46480.8 3671.45   3
  -5   5  -3 47092.8 1170.86  13
  -5   5  -3 46222.9 1246.89   8
  -5   5  -3 47764.0 1417.12  19
  -5   5  -4 286.090 131.699  19
  -5   5  -4 378.404 126.945   8
   5  -5   4 381.587 318.891   3
  -5   5  -4 471.222 137.294  13
  -5   5  -5 6677.32 405.289  13
   5  -5   5 5993.54 394.594   5
  -5   5  -5 6292.56 469.445   8
   5  -5   6 25.2243 64.8349   5
  -5   5  -6 44.8964 73.4236   8
  -5   5  -7 3549.30 318.758   8
   5  -5   7 3347.84 315.942   5
   5  -5   8 6110.50 409.893   5
  -5   5  -8 6118.87 363.694   8
   5  -5   9 766.773 143.664   5
   5  -5  10 2264.79 208.638   5
  -5   5 -10 1459.60 198.951  19
  -5   4  11 908.254 151.937   9
  -5   4  11 680.624 146.116  16
  -5   4  10 76.4090 86.6731   9
  -5   4  10 143.492 122.947  16
  -5   4   9 118.408 99.0480   9
  -5   4   9 49.5444 114.789  16
  -5   4   8 49.0187 119.209   7
  -5   4   8 157.881 128.861  11
  -5   4   8 77.8323 94.2660   9
  -5   4   7 401.679 164.389   7
  -5   4   7 311.764 152.667  11
  -5   4   7 470.006 152.869   9
  -5   4   6 746.990 163.776   7
  -5   4   6 997.463 240.886  11
  -5   4   6 1518.63 894.917   2
  -5   4   6 743.749 192.200   9
  -5   4   6 705.717 168.523  18
  -5   4   5 4923.48 479.646  11
  -5   4   5 5198.11 1563.53   2
  -5   4   5 4923.68 416.384   9
  -5   4   5 4279.32 316.277  15
  -5   4   5 4592.75 383.903  18
  -5   4   5 4361.89 325.689  13
  -5   4   5 4471.51 370.264   7
  -5   4   4 69.1256 76.9310   7
  -5   4   4-2.71423 97.7023  13
  -5   4   4 129.783 107.352  11
  -5   4   4-218.910 385.166   2
  -5   4   4-37.5271 108.060   9
  -5   4   4 182.551 118.333  18
  -5   4   4 134.377 82.0835   8
  -5   4   4 17.3971 78.0722  15
  -5   4   3 20547.5 948.236  11
  -5   4   3 20503.1 809.928  18
  -5   4   3 20077.0 691.145  15
  -5   4   3 20121.5 809.715  19
  -5   4   3 21330.1 696.985   8
  -5   4   3 21272.2 763.485  13
  -5   4   3 19412.4 692.108   7
  -5   4   2 3232.28 372.288  11
  -5   4   2 2833.67 296.702  18
  -5   4   2 2973.38 301.016  19
  -5   4   2 3175.73 277.365   8
  -5   4   2 3849.58 343.467  13
  -5   4   2 3104.49 276.576  15
  -5   4   2 2737.41 250.390   7
  -5   4   1 76388.0 1778.61  11
  -5   4   1 75167.7 1506.32  19
  -5   4   1 74161.6 1438.40  18
  -5   4   1 74196.1 1346.51   8
  -5   4   1 77888.6 1542.22  13
  -5   4   1 72297.4 1330.44   7
  -5   4   0 10544.4 655.606  11
  -5   4   0 10419.5 571.796  19
  -5   4   0 10148.9 505.182   8
  -5   4   0 10301.6 520.631  18
  -5   4   0 10241.6 565.322  13
  -5   4   0 10106.4 510.564   7
  -5   4  -1 7999.02 563.688  11
  -5   4  -1 7304.38 425.340  18
   5  -4   1 8613.46 1344.37   3
  -5   4  -1 7125.02 440.403   8
  -5   4  -1 7450.72 483.154  13
  -5   4  -1 8041.17 514.923  19
  -5   4  -1 8142.83 477.818   7
  -5   4  -2 38865.8 1238.60  11
  -5   4  -2 39795.1 977.996  18
  -5   4  -2 40382.8 1230.21  19
  -5   4  -2 38312.1 1052.16   8
  -5   4  -2 37932.9 1042.35  13
  -5   4  -3 9055.18 569.942  11
   5  -4   3 8985.25 1634.88   3
  -5   4  -3 8701.00 520.336   8
  -5   4  -3 8887.13 484.027  13
   5  -4   4 47886.7 1066.93   5
   5  -4   4 47259.7 3921.04   3
  -5   4  -4 47050.2 1223.28   8
  -5   4  -4 48096.6 1086.75  13
   5  -4   5 7321.09 436.314   5
   5  -4   5 7731.50 1657.48   3
  -5   4  -5 7452.48 478.849   8
   5  -4   6 2812.80 286.750   5
  -5   4  -6 3015.71 290.581   8
   5  -4   6 2859.44 1031.90   3
   5  -4   7 1200.50 197.493   5
  -5   4  -7 1295.17 180.285   8
   5  -4   8-30.7528 87.6155   5
   5  -4   9 916.089 161.250   5
   5  -4  10 3416.48 264.528   5
  -5   3  12 344.943 92.3002   9
  -5   3  11 43.1912 55.2061   6
  -5   3  11 256.308 99.0875   9
  -5   3  11 137.108 97.5725  16
  -5   3  10 116.412 84.2538   6
  -5   3  10 346.858 135.306   9
  -5   3  10 150.287 88.7899  16
  -5   3  10 405.975 139.553   7
  -5   3   9 2815.24 290.600   6
  -5   3   9 2831.11 339.835   9
  -5   3   9 2428.72 312.561   7
  -5   3   8 72.3484 138.346   7
  -5   3   8 15.4719 100.551  11
  -5   3   8 67.3279 105.100   9
  -5   3   7 376.317 158.961   7
  -5   3   7 337.968 136.749  11
  -5   3   7-104.737 672.812   2
  -5   3   7 228.731 109.420   9
  -5   3   6 196.061 103.617   7
  -5   3   6 38.9076 105.020  18
  -5   3   6-4.16801 95.4886  11
  -5   3   6 146.475 87.2715   9
  -5   3   5-52.2215 87.1506   7
  -5   3   5-42.6982 84.3738  11
  -5   3   5 117.803 217.587   2
  -5   3   5 197.343 116.645   9
  -5   3   5-34.6884 97.1292  18
  -5   3   5-24.6600 77.1020   8
  -5   3   5-5.04102 82.6312  15
  -5   3   5 151.772 109.680  13
  -5   3   4 39.0858 66.9974   7
  -5   3   4 120.625 119.271  11
  -5   3   4 43.4992 317.940   2
  -5   3   4-23.6853 71.0652   9
  -5   3   4 60.7360 102.261  18
  -5   3   4 70.6079 78.6271   8
  -5   3   4-37.4396 82.4833  15
  -5   3   4 44.1683 90.5793  13
  -5   3   3 107.131 92.9914   7
  -5   3   3 58.1934 94.8746  11
  -5   3   3 257.003 294.117   2
  -5   3   3 129.168 85.8372  19
  -5   3   3 58.2591 89.2114  18
  -5   3   3 139.545 88.0312   8
  -5   3   3 120.149 66.8448  15
  -5   3   2 1224.78 237.652  11
  -5   3   2 1321.31 196.219  19
  -5   3   2 740.189 466.283   2
  -5   3   2 1240.29 179.041   8
  -5   3   2 1428.33 199.095  18
  -5   3   2 1306.55 181.411  15
  -5   3   2 1473.60 215.436  13
  -5   3   2 1169.23 171.601   7
  -5   3   1 24808.7 842.893  19
  -5   3   1 25605.1 998.965  11
  -5   3   1 24594.6 810.342  18
  -5   3   1 24820.4 764.915  15
  -5   3   1 24955.9 765.349   8
  -5   3   1 25957.7 862.420  13
  -5   3   1 23841.0 778.228   7
  -5   3   1 21944.6 2351.40   2
  -5   3   0 40080.9 1243.38  11
  -5   3   0 41035.4 1089.03  19
  -5   3   0 39472.6 974.924   8
  -5   3   0 38459.8 976.109  18
  -5   3   0 39007.9 1049.00  13
  -5   3   0 40755.4 1029.62   7
  -5   3  -1 145540. 2149.97  19
  -5   3  -1 142254. 2374.27  11
  -5   3  -1 141800. 1901.09  18
  -5   3  -1 139039. 1884.86   8
  -5   3  -1 140755. 1973.64  13
  -5   3  -2 15694.7 658.146   8
  -5   3  -2 15318.1 768.362  11
  -5   3  -2 15008.8 627.012  13
  -5   3  -3 61408.8 1516.35  11
   5  -3   3 65933.1 4405.24   3
  -5   3  -3 61570.1 1322.99   8
  -5   3  -3 64489.0 1270.13  13
   5  -3   4 15614.5 617.794   5
   5  -3   4 15614.8 2259.99   3
  -5   3  -4 15818.4 666.972   8
  -5   3  -4 15815.2 596.531  15
  -5   3  -4 17724.8 663.773  13
   5  -3   5 726.147 143.278   5
   5  -3   5 1447.18 795.688   3
  -5   3  -5 667.181 151.627   8
   5  -3   6 209.082 96.9751   5
  -5   3  -6 121.998 69.4048   8
   5  -3   6-269.029 509.495   3
   5  -3   7 50.9015 69.2062   5
   5  -3   8 4437.19 358.278   5
   5  -3   9 10759.6 519.455   5
   5  -3  10 608.601 118.002   5
  -5   2  12 94.2558 73.1163   9
  -5   2  11 613.626 135.446   6
  -5   2  11 733.152 159.038   9
  -5   2  11 842.048 149.830  16
  -5   2  11 767.889 171.816   7
  -5   2  10 2607.55 281.274   6
  -5   2  10 3139.28 335.087   9
  -5   2  10 2811.77 336.515   7
  -5   2   9 2802.15 305.286   6
  -5   2   9 2985.78 355.233   9
  -5   2   9 2771.31 352.791   7
  -5   2   8 1690.29 284.792   7
  -5   2   8 1692.06 241.925   6
  -5   2   8 1487.82 257.210   9
  -5   2   7 2959.38 343.362  11
  -5   2   7 2768.23 299.987   6
  -5   2   7 2567.06 328.604   9
  -5   2   7 2020.68 934.250   2
  -5   2   7 2807.36 348.103   7
  -5   2   6 984.485 186.372   7
  -5   2   6 921.904 201.719  11
  -5   2   6 596.996 605.580   2
  -5   2   6 1095.26 214.788   9
  -5   2   6 883.091 176.662  18
  -5   2   6 756.236 156.278   8
  -5   2   5 6429.48 435.931  18
  -5   2   5 6023.77 467.803  11
  -5   2   5 4833.53 408.703   9
  -5   2   5 5834.00 368.010   8
  -5   2   5 5883.08 376.684  15
  -5   2   5 6887.42 417.467  13
  -5   2   5 5797.96 408.856   7
  -5   2   4 294.503 103.067  19
  -5   2   4 125.421 89.3417   7
  -5   2   4 348.635 146.779  11
  -5   2   4 419.582 125.146  18
  -5   2   4 282.206 533.653   2
  -5   2   4 226.586 92.7158   8
  -5   2   4 383.989 114.324  15
  -5   2   4 417.652 135.863  13
  -5   2   3 17811.1 2165.88   2
  -5   2   3 19386.6 825.917  11
  -5   2   3 18399.5 639.390  15
  -5   2   3 20069.5 724.415  19
  -5   2   3 19374.4 660.108   8
  -5   2   3 19379.5 735.853  18
  -5   2   3 19771.2 723.410  13
  -5   2   3 19028.8 693.608   7
  -5   2   2 13176.5 1766.25   2
  -5   2   2 14872.4 619.576  19
  -5   2   2 14191.9 715.152  11
  -5   2   2 14142.6 597.935  18
  -5   2   2 14181.0 630.462  13
  -5   2   2 13362.7 545.343   8
  -5   2   2 13674.1 558.012  15
  -5   2   2 14499.7 606.112   7
  -5   2   1 9895.87 611.886  11
  -5   2   1 10057.5 483.081  15
  -5   2   1 10709.2 526.142  19
  -5   2   1 10396.7 482.556   8
  -5   2   1 10511.6 516.124  18
  -5   2   1 9944.48 533.078  13
  -5   2   1 10596.5 520.787   7
  -5   2   1 9169.07 1397.69   2
  -5   2   0 11218.9 658.203  11
  -5   2   0 11882.1 565.727  19
   5  -2   0 12948.6 1538.30   3
  -5   2   0 10971.4 512.792   8
  -5   2   0 11962.4 534.761  15
  -5   2   0 11327.1 563.893  13
  -5   2   0 11658.2 557.350   7
  -5   2  -1 10658.9 655.803  11
   5  -2   1 12212.6 1644.79   3
  -5   2  -1 10231.2 509.989   8
  -5   2  -1 10792.8 582.871  19
  -5   2  -1 10287.9 504.382  15
  -5   2  -1 10478.2 534.338  13
  -5   2  -2 10385.2 659.699  11
   5  -2   2 11632.3 1776.47   3
  -5   2  -2 10028.2 522.957   8
  -5   2  -2 10422.6 497.819  15
  -5   2  -2 11095.4 542.343  13
  -5   2  -3 34525.7 1177.72  11
   5  -2   3 38608.5 3427.96   3
   5  -2   3 38235.2 912.687   5
  -5   2  -3 36534.9 997.713   8
  -5   2  -3 39113.9 935.804  15
  -5   2  -3 42096.1 1059.64  13
  -5   2  -4 4051.58 393.072  11
   5  -2   4 3279.00 289.378   5
  -5   2  -4 3661.43 310.267   8
   5  -2   4 3015.54 1047.76   3
   5  -2   5 1953.23 234.647   5
  -5   2  -5 2142.53 239.088   8
   5  -2   5 2957.75 1093.63   3
   5  -2   6 9120.50 524.303   5
   5  -2   6 7507.85 1714.41   3
   5  -2   7 903.125 182.706   5
   5  -2   8 291.703 119.151   5
   5  -2   9 522.091 121.415   5
   5  -2  10 632.644 119.295   5
  -5   1  12-78.0614 74.0156   6
  -5   1  12 1.31615 65.0909   9
  -5   1  11 739.269 145.521   6
  -5   1  11 1003.64 186.984   9
  -5   1  11 873.807 176.440  16
  -5   1  11 494.675 171.337   7
  -5   1  10-143.329 135.612   7
  -5   1  10 58.9727 79.6416   6
  -5   1  10-2.67730 101.255   9
  -5   1   9 1526.74 283.139   7
  -5   1   9 1751.93 243.922   6
  -5   1   9 1813.25 278.767   9
   5  -1  -8 6730.83 475.799  12
  -5   1   8 6391.29 466.863   6
  -5   1   8 6249.17 518.953   9
  -5   1   8 7053.31 546.539   7
  -5   1   7 4723.11 407.884  11
  -5   1   7 3895.32 412.266   9
  -5   1   7 3497.45 307.759   8
  -5   1   7 4441.22 411.519   7
  -5   1   6 2115.70 279.576  11
  -5   1   6 2412.71 300.904   9
  -5   1   6 1868.78 787.683   2
  -5   1   6 1708.18 231.382   8
  -5   1   6 2124.74 273.725   7
  -5   1   5 1900.17 231.560   8
  -5   1   5 2037.13 268.552  11
  -5   1   5 1354.57 597.845   2
  -5   1   5 2033.38 267.024   9
  -5   1   5 2232.98 254.915   7
  -5   1   4 214.091 85.5829   7
  -5   1   4 26.1984 79.6804  11
  -5   1   4 299.595 356.510   2
  -5   1   4-4.15877 115.618  18
  -5   1   4 195.945 98.4338   8
  -5   1   4 182.080 100.917  15
  -5   1   4 93.4931 112.400  13
  -5   1   4 118.982 67.3327  19
  -5   1   3 3517.03 289.797   8
  -5   1   3 3681.96 353.787  11
  -5   1   3 3715.56 301.262  19
  -5   1   3 3734.27 299.881  15
  -5   1   3 3928.81 353.126  13
  -5   1   3 3413.95 296.850   7
  -5   1   2 10898.5 627.810  11
  -5   1   2 11112.5 508.827  15
  -5   1   2 10504.8 503.464  19
  -5   1   2 10485.4 497.561   8
  -5   1   2 11227.2 604.230  13
  -5   1   2 10699.2 528.308   7
  -5   1   1 1663.30 201.212  19
  -5   1   1 1927.67 278.489  11
  -5   1   1 1614.18 201.026   8
   5  -1  -1 2013.36 587.158   3
  -5   1   1 1983.25 229.647  15
  -5   1   1 1968.96 254.992  13
  -5   1   1 1841.86 216.861   7
  -5   1   0 14600.0 773.642  11
   5  -1   0 16679.9 1846.31   3
  -5   1   0 14155.4 607.961  19
  -5   1   0 14306.1 589.413   8
  -5   1   0 14495.6 591.445  15
  -5   1   0 14443.8 653.571  13
  -5   1   0 14476.5 621.220   7
  -5   1  -1 16247.7 852.278  11
   5  -1   1 16474.0 2002.95   3
  -5   1  -1 16726.7 662.991   8
  -5   1  -1 16761.4 640.208  15
  -5   1  -1 17302.7 708.189  13
  -5   1  -2 76918.8 1878.83  11
  -5   1  -2 79110.8 1436.28   8
  -5   1  -2 80393.2 1357.24  15
  -5   1  -3 37499.0 1300.72  11
   5  -1   3 42052.8 3637.24   3
   5  -1   3 40024.0 962.504   5
  -5   1  -3 40563.9 1017.98   8
  -5   1  -4 162.475 122.802  11
   5  -1   4 71.8023 75.7890   5
  -5   1  -4 76.5627 73.6971   8
   5  -1   4 261.822 384.775   3
   5  -1   5 185.840 101.099   5
   5  -1   5 168.087 430.360   3
   5  -1   6 252.151 108.226   5
   5  -1   7 1362.73 215.853   5
   5  -1   8 96.0594 87.1458   5
   5  -1   9 344.063 103.326   5
   5  -1  10 37.1949 48.3589   5
  -5   0  13 160.733 70.7778   9
  -5   0  12-0.49569 57.1660   6
  -5   0  12 131.632 78.7640   9
  -5   0  12 20.5171 93.1885   7
  -5   0  11 365.197 152.940   7
  -5   0  11 296.350 105.343   6
  -5   0  11 415.286 144.493   9
  -5   0  10 291.811 176.834   7
   5   0 -10 897.912 183.460  12
  -5   0  10 819.180 167.721   6
  -5   0  10 820.024 186.684   9
   5   0  -9 5466.34 438.617  12
  -5   0   9 5272.25 485.420   9
  -5   0   9 5886.47 501.685   7
   5   0  -8 8927.74 570.812  12
  -5   0   8 8709.68 625.738   9
  -5   0   8 8520.14 583.387   7
  -5   0   7 1498.42 265.663   9
  -5   0   7 1093.03 210.098   8
  -5   0   7 1549.24 248.533   7
  -5   0   6 236.361 126.219   7
  -5   0   6 435.720 161.871  11
  -5   0   6 2.75253 240.649   2
  -5   0   6 253.435 135.476   8
  -5   0   5 241.217 98.7543   7
  -5   0   5 303.491 124.903  11
  -5   0   5 30.8272 177.719   2
  -5   0   5 256.824 108.594   8
   5   0  -4 34976.6 843.139   4
  -5   0   4 37565.2 1123.84  11
  -5   0   4 36400.7 954.636   8
  -5   0   4 36951.1 989.927   7
  -5   0   3 9839.20 488.848   8
  -5   0   3 9830.46 611.953  11
  -5   0   3 10283.4 516.943  15
  -5   0   3 9188.64 489.175   7
  -5   0   2 19257.1 872.502  11
  -5   0   2 19049.6 681.857   8
  -5   0   2 20077.4 723.560  15
  -5   0   2 18482.6 697.272   7
  -5   0   1-8.40514 48.4978  19
  -5   0   1 45.3420 77.1387   7
  -5   0   1 23.9709 91.4094  15
  -5   0   1 117.170 112.413  11
   5   0  -1 93.5453 176.901   3
  -5   0   1 68.6099 71.4219   8
  -5   0   0 281.062 91.3268  19
  -5   0   0 200.994 122.818  11
   5   0   0 107.755 197.841   3
  -5   0   0 212.145 101.879   8
  -5   0   0 350.571 135.941  15
  -5   0  -1 58780.1 1253.31   8
  -5   0  -1 58412.1 1714.48  11
  -5   0  -1 60631.1 1229.57  15
   5   0   1 63180.2 3989.34   3
   5   0   2 25.6204 344.360   3
  -5   0  -2 291.521 170.554  11
   5   0   2 332.919 84.6247   5
  -5   0  -2 399.174 133.148   8
  -5   0  -2 217.220 99.3247  15
  -5   0  -3 311.841 172.054  11
   5   0   3 387.661 104.225   5
  -5   0  -3 420.219 122.581   8
   5   0   3 367.547 414.819   3
  -5   0  -4 3549.61 428.359  11
   5   0   4 3723.90 329.482   5
   5   0   4 4128.17 1290.15   3
  -5   0  -5 9387.02 638.505  11
   5   0   5 9286.07 1893.52   3
   5   0   5 9244.32 532.036   5
   5   0   6 3112.78 323.813   5
   5   0   7 149.309 116.335   5
   5   0   8 7984.39 467.665   5
   5   0   9 630.760 125.236   5
   5   0  10 3.42255 42.9428   5
  -5  -1  13 160.347 58.8039   6
  -5  -1  13 224.095 80.0953   9
  -5  -1  12 156.566 83.4491   6
  -5  -1  12 21.8366 59.6092   9
  -5  -1  12 73.0444 103.971   7
  -5  -1  11 47.2360 107.515   7
   5   1 -11 160.110 95.9381  12
  -5  -1  11 127.626 92.5849   6
  -5  -1  11 78.7561 76.8524   9
  -5  -1  10 662.306 206.955   7
   5   1 -10 928.714 199.974  12
  -5  -1  10 1022.82 217.457   9
  -5  -1   9 180.014 131.148   7
   5   1  -9 47.5207 120.302  12
  -5  -1   9 25.4652 112.297   9
  -5  -1   8 1357.98 248.877   7
  -5  -1   8-1221.71 1208.31   2
  -5  -1   7 9112.38 1911.58   2
  -5  -1   7 17804.7 772.521   7
  -5  -1   6 8207.77 498.001   8
  -5  -1   6 8511.35 526.037  11
  -5  -1   6 7759.77 485.515   7
   5   1  -6 8392.13 464.641   4
  -5  -1   5 2897.00 319.024  11
  -5  -1   5 2818.37 309.835   8
  -5  -1   5 2894.87 289.232   7
   5   1  -5 2806.95 261.240   4
  -5  -1   4 431.351 137.184   7
  -5  -1   4 365.666 143.823  11
   5   1  -4 218.968 92.2478   4
  -5  -1   4 324.706 132.335   8
  -5  -1   3 2525.09 334.758  11
  -5  -1   3 2638.90 301.388   8
  -5  -1   3 2550.70 266.766   7
  -5  -1   2 28936.6 1126.33  11
   5   1  -2 29632.0 2485.78   3
  -5  -1   2 26753.3 838.649   8
  -5  -1   2 28726.0 875.263   7
  -5  -1   1 20384.5 1018.97  11
   5   1  -1 19648.7 2113.90   3
  -5  -1   1 20730.8 759.866   8
  -5  -1   1 19357.5 722.962   7
  -5  -1   0 1648.50 226.673   8
   5   1   0 1488.68 572.495   3
  -5  -1   0 1580.09 209.653   7
  -5  -1  -1 26635.4 865.414   8
   5   1   1 23775.5 2545.39   3
   5   1   1 25982.2 742.275   5
  -5  -1  -2 6560.20 424.679   8
   5   1   2 5199.63 353.546   5
   5   1   2 5373.22 1278.38   3
   5   1   3 39134.8 3682.95   3
   5   1   3 37295.4 1011.07   5
   5   1   4 17725.7 2549.70   3
   5   1   4 18495.7 752.797   5
  -5  -1  -5 563.306 183.670  11
   5   1   5 773.985 163.572   5
   5   1   5 1130.51 654.617   3
   5   1   6 246.238 108.530   5
   5   1   7 2907.18 297.092   5
   5   1   8 236.877 94.8555   5
   5   1   9 2037.52 204.536   5
  -5  -2  13 625.298 108.017   6
  -5  -2  13 630.471 117.342   9
   5   2 -12 1528.72 195.147  12
  -5  -2  12 1645.94 198.009   6
  -5  -2  12 1324.55 192.819   9
  -5  -2  12 1146.75 206.131   7
  -5  -2  11-27.2281 120.001   7
   5   2 -11-15.2531 88.2158  12
  -5  -2  11 47.7439 76.7034   6
  -5  -2  11 75.0563 89.1227   9
  -5  -2  10 587.800 188.350   7
   5   2 -10 590.427 186.570  12
  -5  -2  10 663.098 183.467   9
  -5  -2   9-14.2214 116.063   7
   5   2  -9 84.0808 123.788  12
  -5  -2   8 3417.25 357.293   7
  -5  -2   7 1629.14 243.381   7
   5   2  -7 1378.27 216.576   4
  -5  -2   6 6463.40 492.130   8
  -5  -2   6 6421.16 438.705   7
   5   2  -6 6648.89 428.024   4
  -5  -2   5 365.540 113.575   7
  -5  -2   5 377.614 146.077  11
   5   2  -5 493.876 127.260   4
  -5  -2   5 313.306 148.876   8
  -5  -2   4 295.593 105.554   7
  -5  -2   4 86.3429 84.7192  11
   5   2  -4 176.348 100.060   4
  -5  -2   4-37.7633 121.780   8
   5   2  -3 61877.0 1233.13   4
  -5  -2   3 66578.5 1707.98  11
  -5  -2   3 63725.5 1388.07   8
  -5  -2   3 62450.7 1284.37   7
  -5  -2   2 3732.24 442.719  11
  -5  -2   2 3933.66 358.799   8
   5   2  -2 3012.22 887.734   3
  -5  -2   2 3864.90 325.401   7
  -5  -2   1 768.482 153.594   7
   5   2  -1 561.622 492.648   3
  -5  -2   1 238.242 126.310   8
   5   2   0 3081.61 267.907   5
  -5  -2   0 3190.75 318.965   8
   5   2   0 3161.02 968.251   3
  -5  -2   0 2818.47 282.821   7
  -5  -2  -1 6461.00 452.323   8
   5   2   1 5723.04 379.612   5
   5   2   1 5433.41 1270.45   3
  -5  -2  -2 25946.0 2812.14   1
   5   2   2 28678.0 3129.05   3
   5   2   2 30408.1 912.671   5
   5   2   3 2529.87 281.779   5
   5   2   3 1278.11 681.595   3
   5   2   4 10537.5 2038.68   3
   5   2   4 10758.0 585.464   5
   5   2   5 749.440 168.586   5
  -5  -2  -6 510.329 161.124  11
   5   2   6 228.615 98.9817   5
   5   2   7 930.945 182.268   5
   5   2   8 1364.14 183.895   5
   5   2   9 2117.44 191.990   5
  -5  -3  13-22.0333 48.7754   6
  -5  -3  13-24.9285 44.2470   9
   5   3 -12-58.0137 76.9457  12
  -5  -3  12-129.824 78.7329   6
  -5  -3  12 4.83457 60.1589   9
  -5  -3  12 71.9498 105.128   7
  -5  -3  11 1252.09 224.930   7
   5   3 -11 1483.33 217.233  12
  -5  -3  11 1274.45 210.822   9
  -5  -3  10 271.690 149.186   7
   5   3 -10 354.191 143.944  12
  -5  -3   9 497.913 162.846   7
   5   3  -9 477.206 185.490  12
   5   3  -9 506.982 129.020   4
  -5  -3   8 1042.28 217.789   7
   5   3  -8 724.206 165.050   4
  -5  -3   7 8422.30 525.011   7
   5   3  -7 8575.50 515.506   4
  -5  -3   6 7166.24 469.137   7
   5   3  -6 7026.64 459.247   4
  -5  -3   5 1363.70 246.598  11
  -5  -3   5 1497.90 263.614   8
  -5  -3   5 1944.78 237.532   7
   5   3  -5 1914.37 247.481   4
  -5  -3   4 1638.24 267.698  11
  -5  -3   4 2034.05 308.074   8
  -5  -3   4 1799.73 226.361   7
   5   3  -4 1621.56 222.434   4
   5   3  -3 5978.22 406.536   4
  -5  -3   3 5429.81 513.694  11
  -5  -3   3 5391.33 433.891   8
  -5  -3   3 5560.99 386.813   7
  -5  -3   2 1798.07 284.556   8
  -5  -3   2 1892.69 230.092   7
  -5  -3   1 48481.1 1280.58   8
  -5  -3   1 44199.9 3388.48   1
   5   3  -1 47540.3 1100.39   5
  -5  -3   1 46678.8 1137.64   7
   5   3   0 2936.53 285.611   5
   5   3   0 1346.33 676.756   3
  -5  -3   0 2277.53 288.874   8
  -5  -3   0 2515.05 890.419   1
  -5  -3   0 2339.17 259.126   7
  -5  -3  -1 1963.60 855.943   1
   5   3   1 2585.52 273.182   5
   5   3   1 1816.14 818.163   3
  -5  -3  -1 2304.60 257.765   7
   5   3   2-6.08342 264.756   3
   5   3   2-27.5877 65.5786   5
   5   3   3 365.456 144.057   5
   5   3   3 797.863 608.232   3
  -5  -3  -3-322.000 417.291   1
   5   3   4 2536.95 292.099   5
   5   3   5 1285.64 213.975   5
  -5  -3  -6 7956.44 518.611  11
   5   3   6 9563.09 535.865   5
   5   3   7 942.957 162.543   5
   5   3   8 53.1506 55.1028   5
   5   4 -12 952.284 145.969  12
  -5  -4  12 1437.69 179.455   6
  -5  -4  12 1131.75 175.967   9
   5   4 -11 1065.56 180.758  12
  -5  -4  11 989.743 185.696   7
   5   4 -10 2309.75 288.756  12
   5   4 -10 2190.51 248.847   4
  -5  -4  10 2153.80 284.233   7
  -5  -4   9 286.940 151.002   7
   5   4  -9 206.802 128.727  12
   5   4  -9 298.093 114.764   4
  -5  -4   8-80.6549 120.638   7
   5   4  -8-64.1846 98.3478   4
  -5  -4   7 1440.90 231.227   7
   5   4  -7 1323.44 212.298   4
  -5  -4   6 715.784 169.994   7
   5   4  -6 374.696 142.781   4
  -5  -4   5 5204.74 381.232   7
   5   4  -5 5472.94 420.004   4
  -5  -4   4 273.967 96.4410   7
  -5  -4   4 208.804 124.038  11
   5   4  -4 363.484 145.754   4
  -5  -4   3 435.885 123.596   7
   5   4  -3 405.267 155.446   4
  -5  -4   3 123.879 144.004   8
   5   4  -2 17262.5 676.812   5
  -5  -4   2 15937.4 758.158   8
  -5  -4   2 16765.3 655.451   7
   5   4  -1 9189.52 521.196   5
  -5  -4   1 9044.93 554.706   8
  -5  -4   1 8810.14 484.797   7
  -5  -4   0 303.993 116.355   7
   5   4   0 428.963 136.057   5
  -5  -4   0 141.882 381.521   1
  -5  -4   0 323.479 157.092   8
  -5  -4  -1 177.469 519.053   1
  -5  -4  -1 224.570 97.9673   7
   5   4   1 254.039 99.4910  10
   5   4   1 176.045 99.6954   5
   5   4   2 1264.70 189.934  10
  -5  -4  -2 475.872 425.477   1
   5   4   2 1473.36 226.360   5
   5   4   2 1677.52 865.985   3
  -5  -4  -2 1230.31 205.350   7
   5   4   3 914.741 198.221   5
   5   4   3 859.706 165.654  10
   5   4   4 2777.33 279.278  10
   5   4   4 2593.50 306.456   5
   5   4   5 395.690 118.913  10
   5   4   5 491.813 137.396   5
  -5  -4  -6 483.325 130.415  11
   5   4   6 675.514 151.674   5
   5   4   6 523.127 102.879  17
   5   4   7 150.196 68.0511   5
   5   5 -12 262.308 91.3226  12
  -5  -5  12 264.707 85.1695   9
   5   5 -11 86.4151 78.4474   4
   5   5 -11 31.4800 87.5561  12
  -5  -5  11 142.976 86.4010   7
  -5  -5  10 621.106 153.067   7
   5   5 -10 790.170 181.497  12
   5   5 -10 562.625 126.033   4
  -5  -5   9 608.920 181.399   7
   5   5  -9 733.505 183.111  12
   5   5  -9 790.216 169.275   4
   5   5  -8 3162.85 356.891  12
  -5  -5   8 2439.99 295.060   7
   5   5  -8 2736.60 300.320   4
  -5  -5   7 1227.12 222.623   7
   5   5  -7 1631.85 238.282   4
  -5  -5   6 1382.99 211.878   7
   5   5  -6 1626.38 241.014   4
  -5  -5   5 1249.80 181.432   7
   5   5  -5 1954.48 276.112   4
  -5  -5   4 5.21535 95.0608  11
   5   5  -4-59.7812 103.220   4
   5   5  -3 3110.25 323.247  10
   5   5  -3 2847.25 312.785   4
   5   5  -2 689.083 162.301  10
   5   5  -2 690.593 172.070   4
  -5  -5   1 857.127 531.006   1
   5   5  -1 941.985 182.832  10
   5   5  -1 1025.49 197.622   4
   5   5  -1 902.672 185.132   5
   5   5   0 9087.61 545.351   4
   5   5   0 7902.63 483.633  10
   5   5   0 7348.00 517.593   5
   5   5   1 2891.16 294.270  10
   5   5   1 3159.87 338.461   5
   5   5   2 200.083 103.669   5
   5   5   2 267.740 121.626  10
   5   5   3 302.920 123.500   5
   5   5   3 444.649 121.457  10
   5   5   4 15.9779 74.3022   5
   5   5   4 138.854 111.282  10
   5   5   4 88.5026 108.751   4
   5   5   5 111.458 75.3188  10
   5   5   5 54.5674 75.8213   5
  -5  -5  -6 44.5022 55.8804  11
   5   5   6 4.01648 54.8690   5
   5   5   6 72.3542 49.3971  17
   5   6 -12 150.257 82.3913  12
  -5  -6  12 194.071 74.8618   9
   5   6 -11 295.493 95.6060  12
   5   6 -11 320.383 93.3746   4
   5   6 -10 1749.79 228.954  12
   5   6 -10 1494.74 201.329   4
   5   6  -9 718.404 178.685  12
   5   6  -9 880.958 170.041   4
   5   6  -8 1935.09 280.986  12
   5   6  -8 2170.00 274.088   4
   5   6  -7 592.267 188.679  12
   5   6  -7 964.338 199.194   4
   5   6  -6 3326.82 356.586   4
   5   6  -5 66.1905 147.957   4
   5   6  -5 93.6645 94.4124  10
  -5  -6   4-68.4112 80.6239  11
   5   6  -4 178.862 133.477   4
   5   6  -4 57.0741 91.6605  10
   5   6  -3-83.1757 113.484   4
   5   6  -3 60.9936 78.8040  10
   5   6  -2 1172.76 208.819   4
   5   6  -2 965.409 182.616  10
   5   6  -1 1194.92 219.556   4
   5   6  -1 940.222 178.183  10
   5   6   0 5211.22 404.406   4
   5   6   0 4906.45 385.043  10
   5   6   0 4668.86 417.859   5
   5   6   1 144.159 99.2684   4
   5   6   1 225.179 100.596  10
   5   6   1 64.3086 99.5785   5
   5   6   2-15.9533 84.7151   5
   5   6   2-93.5881 83.9973   4
   5   6   2 94.4280 91.7930  10
   5   6   3 246.895 105.682   4
   5   6   3 308.497 103.763  10
   5   6   3 310.704 125.141   5
   5   6   4 1.38955 62.5091  10
   5   6   4-25.5644 59.7436   5
   5   6   4 7.79466 74.3009  17
   5   6   5 597.486 135.039   5
   5   6   5 481.160 99.7550  17
   5   7 -11-149.725 82.5969  12
   5   7 -11-62.1469 61.8730   4
   5   7 -10 166.025 93.1218  12
   5   7 -10 53.8620 68.4190   4
   5   7  -9-14.5579 89.8269  12
   5   7  -9 20.1492 75.9248   4
   5   7  -8 758.221 178.208  12
   5   7  -8 760.656 176.166   4
   5   7  -7 1476.53 231.475  12
   5   7  -7 1884.85 259.696   4
   5   7  -6 2006.38 272.890  12
   5   7  -6 2509.75 302.555   4
   5   7  -5 1198.79 220.374   4
   5   7  -4 1463.15 242.035   4
   5   7  -4 1053.65 191.518  10
   5   7  -3 492.626 157.513   4
   5   7  -3 287.629 115.518  10
   5   7  -2 603.729 164.210   4
   5   7  -2 587.028 134.325  10
   5   7  -1-16.6531 93.1498   4
   5   7  -1 26.5874 89.0111  10
   5   7   0-44.9772 86.4703   4
   5   7   0-33.2528 81.0773  10
   5   7   1 289.346 97.6504   4
   5   7   1 298.593 108.569  10
   5   7   2 113.639 70.4378  10
   5   7   2 90.7487 77.1483   5
   5   7   3 119.880 64.7492  10
   5   7   3-28.9340 56.9112   5
   5   7   3 158.013 85.5693  17
   5   7   4 122.915 65.4263  17
   5   8 -10 182.846 75.8337   4
   5   8  -9 213.283 87.3445  12
   5   8  -9 276.231 94.5854   4
   5   8  -8 314.489 102.392  12
   5   8  -8 208.059 89.0729   4
   5   8  -7 629.050 153.236   4
   5   8  -6 246.633 103.452   4
   5   8  -5 1136.36 198.007   4
   5   8  -4 411.117 132.682   4
   5   8  -4 355.647 107.886  10
   5   8  -3-62.2364 98.8844   4
  -5  -8   3 72.0357 88.5179  11
   5   8  -3 59.3616 77.8900  10
   5   8  -3-10.0853 78.0162  17
   5   8  -2 34.8205 91.8991   4
   5   8  -2 11.9287 84.6410  10
   5   8  -2-154.903 106.537  17
   5   8  -1 348.779 118.520   4
   5   8  -1 333.303 112.967  10
   5   8  -1 152.987 97.9355  17
   5   8   0 58.2550 68.3096   4
   5   8   0 92.2139 79.5961  10
   5   8   0-10.5741 71.5212  17
   5   8   1 57.4931 79.0172  10
   5   8   1-163.802 101.801  17
   5   8   2 404.756 97.9253  10
   5   8   2 359.252 89.0535  17
   5   8   3 9.72659 56.3120  17
   5   9  -9 195.958 80.8892   4
   5   9  -8 92.7543 67.2314   4
   5   9  -7 6.12945 69.0744   4
   5   9  -6 575.558 132.895   4
   5   9  -5 434.839 119.290   4
   5   9  -4 433.666 128.051   4
   5   9  -3 180.795 84.5523   4
   5   9  -3 54.0858 61.8075  10
   5   9  -2 72.4689 63.3823   4
  -5  -9   2-8.11841 78.0950  11
   5   9  -2 125.640 74.9276  10
   5   9  -2 128.044 58.5350  17
  -5  -9   1-115.741 99.6854  11
   5   9  -1 91.7273 66.3410  10
   5   9  -1 97.2867 57.9859  17
   5   9  -1-34.4301 56.4366  13
   5   9   0-123.117 70.9838  10
   5   9   0-79.8569 66.9718  17
   5  10  -5 47.9920 59.1392  13
   5  10  -4 95.8708 71.1378  13
  -6  11   1 1499.20 192.887  18
  -6  11   0 2487.43 255.849  13
  -6  11   0 1787.56 201.935  18
  -6  11  -1 21.2180 69.0531  15
  -6  11  -1-94.3556 108.124  13
  -6  11  -2 397.116 101.210  15
  -6  11  -2 471.789 134.966  13
  -6  11  -3 93.7501 63.7623  15
  -6  11  -3 194.757 107.087  13
  -6  11  -4 1267.41 168.233  15
  -6  10   4 388.261 120.687  18
  -6  10   3 285.982 121.562  18
  -6  10   2 466.881 132.776  18
  -6  10   2 794.072 151.615  13
  -6  10   1 748.108 246.166  11
  -6  10   1 620.378 154.145  18
  -6  10   1 722.445 137.700  15
  -6  10   1 670.007 174.790  13
  -6  10   0-154.286 95.2220  18
  -6  10   0-25.0914 164.670  11
  -6  10   0 39.3444 67.9769  15
  -6  10   0-46.0712 118.543  13
  -6  10  -1 530.443 135.517  18
  -6  10  -1 424.101 128.654  15
  -6  10  -1 547.620 174.014  13
  -6  10  -2 8.14989 62.6096   8
  -6  10  -2 261.146 123.602  13
  -6  10  -3 2000.52 235.391   8
  -6  10  -3 2456.84 283.036  13
  -6  10  -4 406.273 119.180   8
  -6  10  -4 360.882 113.215  13
  -6  10  -5 3329.57 285.455   8
  -6  10  -5 3188.88 261.215  15
  -6  10  -5 3190.17 237.975  13
  -6  10  -6 59.3648 69.3906   8
  -6   9   5 112.854 95.1339  18
  -6   9   4 1421.07 295.959  11
  -6   9   4 925.590 195.373  18
  -6   9   4 1019.47 202.297  16
  -6   9   3 1278.33 293.889  11
  -6   9   3 873.929 183.579  18
  -6   9   3 874.186 168.534  13
  -6   9   2 6173.33 585.587  11
  -6   9   2 6062.64 467.706  18
  -6   9   2 4968.39 344.946  15
  -6   9   2 5604.17 420.378  13
  -6   9   1 3771.06 476.356  11
  -6   9   1 4733.25 424.668  18
  -6   9   1 4238.34 351.726  15
  -6   9   1 4586.85 421.628  13
  -6   9   0 2453.07 377.758  11
  -6   9   0 2445.54 283.395  15
  -6   9   0 3211.37 365.084  13
  -6   9   0 3119.90 322.360  18
  -6   9   0 2746.81 262.507   8
  -6   9  -1 2000.97 310.016  11
  -6   9  -1 2418.96 270.247  18
  -6   9  -1 2596.70 273.163   8
  -6   9  -1 2888.53 356.909  13
  -6   9  -2 4091.72 392.229  19
  -6   9  -2 4492.26 335.889  18
  -6   9  -2 4429.62 374.563   8
  -6   9  -2 5305.61 452.090  13
  -6   9  -3 562.561 154.114  19
  -6   9  -3 629.797 162.735   8
  -6   9  -3 687.146 179.650  13
  -6   9  -4 135.244 85.9357  19
  -6   9  -4 182.639 125.904   8
  -6   9  -4 56.0400 82.9797  13
  -6   9  -5-42.0999 58.5030  19
  -6   9  -5-66.6599 95.0590   8
  -6   9  -5 19.6722 73.9587  13
  -6   9  -6 4829.61 339.421  19
  -6   9  -6 5792.83 379.271   8
  -6   9  -6 5443.09 316.570  15
  -6   9  -7 1931.96 192.842   8
  -6   8   7-43.9631 96.1039  16
  -6   8   6 533.399 187.323  11
  -6   8   6 608.032 139.623  18
  -6   8   6 647.166 190.111  16
  -6   8   5 92.0167 138.863  11
  -6   8   5 82.9468 93.4739  18
  -6   8   5 89.1810 122.117  16
  -6   8   4 1829.41 334.333  11
  -6   8   4 1246.60 234.382  18
  -6   8   4 1396.91 247.477  16
  -6   8   4 1191.73 184.443  13
  -6   8   3-45.7315 163.661  11
  -6   8   3-120.673 128.889  18
  -6   8   3 319.967 180.794  16
  -6   8   3-39.5061 74.1397  15
  -6   8   3 106.799 108.811  13
  -6   8   2 2256.14 392.718  11
  -6   8   2 2612.81 341.115  18
  -6   8   2 2252.65 252.817  15
  -6   8   2 2327.90 299.359  13
  -6   8   1 347.566 179.299  11
  -6   8   1 289.428 160.887  18
  -6   8   1 463.407 120.232   8
  -6   8   1 227.897 115.963  15
  -6   8   1 486.125 181.512  13
  -6   8   0 2531.60 402.119  11
  -6   8   0 2196.44 303.326  19
  -6   8   0 2263.75 279.667  18
  -6   8   0 2439.00 272.356   8
  -6   8   0 2583.99 350.133  13
  -6   8  -1 5081.49 456.232  19
  -6   8  -1 5048.23 517.506  11
  -6   8  -1 5440.57 398.282  18
  -6   8  -1 5254.82 414.068   8
  -6   8  -1 5608.54 492.871  13
  -6   8  -2 2254.02 308.638  19
  -6   8  -2 2742.52 318.162   8
  -6   8  -2 2511.64 277.969  18
  -6   8  -2 2756.96 324.325  13
  -6   8  -3 8932.59 600.187  19
  -6   8  -3 8965.23 579.870   8
  -6   8  -3 9160.47 551.897  13
  -6   8  -4 4121.37 402.068  19
  -6   8  -4 4350.30 396.319   8
  -6   8  -4 4305.85 343.531  13
  -6   8  -5 1391.36 233.433  19
  -6   8  -5 1496.33 225.822   8
  -6   8  -5 1253.86 172.420  13
  -6   8  -6 1508.07 224.573  19
  -6   8  -6 1819.86 222.905   8
  -6   8  -6 1473.36 177.681  15
  -6   8  -7 2316.18 243.092  19
  -6   8  -7 3158.84 260.305   8
  -6   8  -8 5716.89 289.504   8
  -6   7   8 138.318 111.230  16
  -6   7   7 196.708 146.281  11
  -6   7   7 186.774 130.598  16
  -6   7   6 95.4911 136.607  11
  -6   7   6 41.4448 78.3954  18
  -6   7   6 144.881 137.629  16
  -6   7   5 42.0373 137.114  11
  -6   7   5 91.9763 95.4284  18
  -6   7   5 248.033 158.161  16
  -6   7   4 3369.87 452.740  11
  -6   7   4 2994.63 379.401  16
  -6   7   4 3439.61 371.482  18
  -6   7   4 3170.34 271.185  15
  -6   7   4 2741.02 284.901  13
  -6   7   3 6265.98 617.540  11
  -6   7   3 5890.59 501.045  18
  -6   7   3 6259.61 519.975  16
  -6   7   3 5388.65 380.168  15
  -6   7   3 5316.41 415.373  13
  -6   7   2 10459.8 804.223  11
  -6   7   2 9886.06 496.605   8
  -6   7   2 10692.2 647.397  18
  -6   7   2 9276.85 610.274  16
  -6   7   2 9634.59 534.051  15
  -6   7   2 10142.5 619.467  13
  -6   7   1 2998.88 431.215  11
  -6   7   1 3092.89 364.001  19
  -6   7   1 3621.13 378.368  18
  -6   7   1 2920.39 298.816   8
  -6   7   1 3189.32 328.685  15
  -6   7   1 3400.24 387.230  13
  -6   7   0 1078.61 266.808  11
  -6   7   0 1040.60 226.000  19
  -6   7   0 1333.41 213.156  18
  -6   7   0 1209.26 206.402   8
  -6   7   0 1416.79 285.058  13
  -6   7  -1-82.7063 108.023  11
  -6   7  -1 19.3622 88.8650  19
  -6   7  -1 99.7210 106.440  18
  -6   7  -1-6.88681 86.2308   8
  -6   7  -1 17.4621 157.332  13
  -6   7  -2 3338.45 389.780  11
  -6   7  -2 3058.50 366.458  19
  -6   7  -2 3156.00 313.485  18
  -6   7  -2 3215.08 342.107   8
  -6   7  -2 3174.01 345.314  13
  -6   7  -3 15922.9 839.476  19
  -6   7  -3 16226.2 789.612   8
  -6   7  -3 16227.4 729.264  13
  -6   7  -4 1910.13 281.873   8
  -6   7  -4 1822.37 231.852  13
  -6   7  -4 1641.37 276.759  19
  -6   7  -5 430.455 146.223  19
  -6   7  -5 368.101 121.279   8
  -6   7  -5 426.164 104.848  13
  -6   7  -6 11354.6 658.724  19
  -6   7  -6 12625.3 589.536   8
  -6   7  -6 11180.8 470.926  15
  -6   7  -7 1576.67 227.186  19
  -6   7  -7 1738.31 199.708   8
  -6   7  -8 3199.74 278.066  19
  -6   7  -8 3790.30 242.107   8
  -6   6   9-273.894 112.723  16
  -6   6   8 149.949 114.894  11
  -6   6   8-55.7001 67.6347   9
  -6   6   8-10.9495 102.396  16
  -6   6   7 95.5178 137.296  11
  -6   6   7 48.6948 86.8704   9
  -6   6   7 125.925 91.6989  18
  -6   6   7 189.914 133.893  16
  -6   6   6 1889.87 321.065  11
  -6   6   6 1126.05 193.330   9
  -6   6   6 1500.53 221.590  18
  -6   6   6 1948.25 304.126  16
  -6   6   5 3037.56 399.986  11
  -6   6   5 2550.84 301.612  18
  -6   6   5 2985.48 369.513  16
  -6   6   5 2388.27 237.034  15
  -6   6   5 2672.13 268.388  13
  -6   6   4 1242.55 270.645  11
  -6   6   4 1405.28 254.652  18
  -6   6   4 1167.05 187.416  15
  -6   6   4 1219.68 208.423  13
  -6   6   3 986.243 253.169  11
  -6   6   3 1251.63 249.021  18
  -6   6   3 1050.02 169.226   8
  -6   6   3 928.731 175.048  15
  -6   6   3 1267.39 222.519  13
  -6   6   2 8184.50 690.916  11
  -6   6   2 7908.89 570.476  19
  -6   6   2 8357.64 472.248   8
  -6   6   2 8734.81 588.415  18
  -6   6   2 7939.87 495.593  15
  -6   6   2 8482.46 567.243  13
  -6   6   1 2962.90 442.411  11
  -6   6   1 2811.70 342.588  19
  -6   6   1 2967.38 343.145  18
  -6   6   1 2840.12 296.604   8
  -6   6   1 2594.84 295.818  15
  -6   6   1 3023.30 357.249  13
  -6   6   0 13525.0 863.122  11
  -6   6   0 12840.5 654.853  18
  -6   6   0 12881.3 734.304  19
  -6   6   0 12437.3 632.805   8
  -6   6   0 13024.9 727.163  13
  -6   6  -1 69.8338 123.219  11
  -6   6  -1 49.9586 73.3163  19
  -6   6  -1-148.810 122.321  18
  -6   6  -1 77.0529 99.3562   8
  -6   6  -1 185.650 137.180  13
  -6   6  -2 2914.64 370.369  11
  -6   6  -2 3060.18 381.664  19
  -6   6  -2 2868.10 326.412   8
  -6   6  -2 2875.82 326.866  13
  -6   6  -3 125.095 92.4186  19
  -6   6  -3 211.579 109.880   8
  -6   6  -3 245.137 117.830  13
  -6   6  -4 1343.79 255.234  19
  -6   6  -4 1623.76 252.021   8
  -6   6  -4 1416.94 205.782  13
  -6   6  -5 28.0084 71.3974   7
  -6   6  -5 194.801 110.687  19
  -6   6  -5 235.909 104.680   8
  -6   6  -5 370.787 109.736  15
  -6   6  -5 187.925 101.365  13
  -6   6  -6 2849.90 347.540  19
  -6   6  -6 3564.47 318.167   8
  -6   6  -6 2806.11 310.271   7
  -6   6  -7 2843.23 330.684  19
  -6   6  -7 3461.04 275.682   8
  -6   6  -7 2451.51 273.158   7
  -6   6  -8 3321.12 314.441  19
  -6   6  -9 2422.76 222.615  19
  -6   5   9 149.558 83.4564   9
  -6   5   9-128.216 115.642  16
  -6   5   8 126.302 63.2750   9
  -6   5   8 210.800 132.956  16
  -6   5   7 518.470 167.806  11
  -6   5   7 296.137 109.987   9
  -6   5   6 317.402 168.953  11
  -6   5   6 61.9491 92.0620   9
  -6   5   6 140.784 117.399  18
  -6   5   5 585.500 202.902  11
  -6   5   5 406.111 163.118  18
  -6   5   5 246.558 109.824  15
  -6   5   5 418.346 126.148  13
  -6   5   4 2254.04 363.502  11
  -6   5   4 2056.56 226.152   8
  -6   5   4 2044.67 293.567  18
  -6   5   4 2160.43 250.662  15
  -6   5   4 2596.42 301.480  13
  -6   5   3 3803.60 460.043  11
  -6   5   3 3544.51 312.487   8
  -6   5   3 3446.37 386.544  18
  -6   5   3 3511.68 326.125  15
  -6   5   3 3762.99 368.375  13
  -6   5   2 18940.6 1021.44  11
  -6   5   2 18301.5 836.167  19
  -6   5   2 19434.4 737.299   8
  -6   5   2 20273.3 859.956  18
  -6   5   2 18667.9 753.138  15
  -6   5   2 19636.2 847.711  13
  -6   5   2 18127.6 704.020   7
  -6   5   1 15970.8 913.558  11
  -6   5   1 15684.2 776.597  19
  -6   5   1 15480.2 726.249  18
  -6   5   1 16009.9 682.950   8
  -6   5   1 14787.2 684.594  15
  -6   5   1 15640.6 765.577  13
  -6   5   1 15138.3 648.816   7
  -6   5   0 24216.9 1126.87  11
  -6   5   0 25000.2 1010.99  19
  -6   5   0 24178.5 870.631  18
  -6   5   0 24448.6 868.998   8
  -6   5   0 22949.0 861.760  15
  -6   5   0 23421.7 939.863  13
  -6   5   0 24505.2 877.984   7
  -6   5  -1 174.487 95.3123   7
  -6   5  -1 217.832 145.462  11
  -6   5  -1 156.022 112.068  19
  -6   5  -1 106.260 137.638  18
  -6   5  -1 43.9688 92.3958   8
  -6   5  -1 73.6441 114.512  15
  -6   5  -1 73.9033 121.458  13
  -6   5  -2 92.0479 89.9837   7
  -6   5  -2 184.224 112.446  19
  -6   5  -2 215.147 148.928  11
  -6   5  -2 214.726 102.085   8
  -6   5  -2 144.387 108.862  15
  -6   5  -2 241.836 147.248  13
  -6   5  -3 12501.0 705.569  11
  -6   5  -3 12018.9 755.535  19
  -6   5  -3 12502.0 664.877   8
  -6   5  -3 11514.7 602.275  15
  -6   5  -3 12572.6 614.662  13
  -6   5  -3 12541.0 689.208   7
  -6   5  -4 100.058 108.382  19
  -6   5  -4 120.134 91.1949   8
  -6   5  -4 86.3427 127.932  15
  -6   5  -4 148.028 99.5639  13
  -6   5  -5 2379.45 347.826  19
  -6   5  -5 2794.62 296.099   8
  -6   5  -5 2737.93 257.158  15
  -6   5  -6 716.290 193.590  19
  -6   5  -6 758.627 150.696   8
   6  -5   7 4566.33 314.055   5
  -6   5  -7 4538.73 440.003  19
  -6   5  -7 5332.81 330.308   8
   6  -5   8 2819.73 227.982   5
  -6   5  -8 3197.56 326.944  19
  -6   5  -9 3800.44 298.511  19
  -6   4  10 77.4276 67.1242   9
  -6   4  10 11.8498 91.6131  16
  -6   4   9-1.62982 65.2783   9
  -6   4   9 211.448 134.484  16
  -6   4   8 209.708 113.935  11
  -6   4   8 182.118 93.9315   9
  -6   4   7 641.286 185.949   7
  -6   4   7 856.581 211.836  11
  -6   4   7 581.493 161.599   9
  -6   4   6 1360.37 229.159   7
  -6   4   6 1576.18 276.538  11
  -6   4   6 1484.35 235.544   9
  -6   4   6 1732.31 241.734  18
  -6   4   5 10262.6 704.454  11
  -6   4   5 10007.7 581.650  18
  -6   4   5 9957.89 515.132  15
  -6   4   5 10534.7 543.486  13
  -6   4   5 9728.21 554.514   7
  -6   4   4 2900.21 379.989  11
  -6   4   4 3040.69 327.206  18
  -6   4   4 2680.06 272.183   8
  -6   4   4 2548.81 279.487  15
  -6   4   4 2879.87 326.444  13
  -6   4   4 2643.71 290.443   7
  -6   4   3 2624.91 376.852  11
  -6   4   3 1684.90 810.413   2
  -6   4   3 2202.71 294.401  19
  -6   4   3 2468.25 263.182   8
  -6   4   3 3011.60 335.906  18
  -6   4   3 2813.10 299.348  15
  -6   4   3 2902.52 310.995  13
  -6   4   3 2512.68 268.866   7
  -6   4   2 4763.58 490.359  11
  -6   4   2 3814.36 1230.37   2
  -6   4   2 4928.95 419.773  19
  -6   4   2 4679.96 363.757   8
  -6   4   2 4947.65 404.131  18
  -6   4   2 4239.75 359.951  15
  -6   4   2 4327.30 401.280  13
  -6   4   2 4793.75 370.494   7
  -6   4   1 12438.0 790.442  11
  -6   4   1 11748.3 655.194  19
  -6   4   1 13017.3 658.072  18
  -6   4   1 11743.1 599.536   8
  -6   4   1 12187.1 604.160  15
  -6   4   1 13261.0 692.794  13
  -6   4   1 11180.5 585.988   7
  -6   4   0 4771.96 492.051  11
  -6   4   0 4900.41 438.125  19
  -6   4   0 5131.03 403.169  18
  -6   4   0 5065.61 399.332   8
  -6   4   0 4736.34 390.999  15
  -6   4   0 5129.39 423.882  13
  -6   4   0 4896.65 402.810   7
  -6   4  -1 96.5438 101.899   7
  -6   4  -1 126.791 107.658  11
  -6   4  -1 79.6717 114.357  19
  -6   4  -1 272.710 137.502   8
  -6   4  -1 166.445 93.5768  15
  -6   4  -1 192.754 137.309  13
  -6   4  -2 13315.3 767.725  19
  -6   4  -2 13007.5 768.727  11
  -6   4  -2 13099.7 662.415   8
  -6   4  -2 12524.7 617.943  15
  -6   4  -2 12649.1 633.065  13
  -6   4  -2 13529.0 715.599   7
  -6   4  -3 2185.28 305.067  11
  -6   4  -3 2169.22 335.517  19
  -6   4  -3 2151.09 275.189   8
  -6   4  -3 2186.82 256.112  15
  -6   4  -3 2502.95 281.500  13
  -6   4  -4 33.8590 94.7168  19
  -6   4  -4-87.1963 94.4511   8
  -6   4  -4 87.3503 96.8164  15
  -6   4  -4 188.781 115.259  13
  -6   4  -5 5875.12 550.870  19
  -6   4  -5 6322.17 429.938   8
  -6   4  -6 923.321 238.455  19
  -6   4  -6 1039.13 172.891   8
   6  -4   6 965.606 159.105   5
  -6   4  -7 2183.26 318.801  19
   6  -4   7 2145.28 229.092   5
  -6   4  -8 587.562 145.174  19
   6  -4   8 567.196 114.782   5
  -6   4  -9 255.021 101.053  19
   6  -4   9 301.134 83.1635   5
  -6   3  11 208.717 78.9881   9
  -6   3  10 189.576 78.0744   9
  -6   3  10 268.647 113.656  16
  -6   3  10 378.690 113.348   7
  -6   3   9 919.389 182.069   7
  -6   3   9 719.862 156.040   9
  -6   3   8 70.8332 101.340   7
  -6   3   8-10.1822 89.2770  11
  -6   3   8-68.2037 89.2105   9
  -6   3   7 75.3534 109.803   7
  -6   3   7 63.7732 91.3990  11
  -6   3   7-13.0386 77.2898   9
  -6   3   6 8044.96 593.657  11
  -6   3   6 6203.94 468.761   9
  -6   3   6 7173.84 502.353   7
  -6   3   5 4703.67 458.306  11
  -6   3   5 4788.45 357.247   8
  -6   3   5 5058.70 408.998  18
  -6   3   5 4742.43 388.229   7
  -6   3   4 8822.13 643.398  11
  -6   3   4 9147.49 501.629   8
  -6   3   4 9647.38 600.585  18
  -6   3   4 8683.11 500.515  15
  -6   3   4 9052.13 546.420  13
  -6   3   4 8548.70 512.852   7
  -6   3   3 6567.78 556.362  11
  -6   3   3 6295.73 464.933  19
  -6   3   3 6738.75 494.691  18
  -6   3   3 6305.30 426.125  15
  -6   3   3 7043.66 490.400  13
  -6   3   3 6405.91 424.920   8
  -6   3   3 6298.82 432.842   7
  -6   3   2 9837.03 689.189  11
  -6   3   2 10014.7 531.397   8
  -6   3   2 10188.2 581.908  19
  -6   3   2 9925.98 581.139  18
  -6   3   2 9663.26 533.349  15
  -6   3   2 9739.55 583.701  13
  -6   3   2 9578.84 536.577   7
  -6   3   1 431.466 139.814   7
  -6   3   1 402.393 158.462  11
  -6   3   1 638.847 150.813  19
  -6   3   1 470.421 146.098   8
  -6   3   1 354.078 141.419  15
  -6   3   1 491.237 202.559  13
  -6   3   0 26975.2 1138.30  11
  -6   3   0 27759.8 1004.32  19
  -6   3   0 27197.4 903.480   8
  -6   3   0 26059.9 897.231  15
  -6   3   0 26936.8 962.076  13
  -6   3   0 27485.6 966.015   7
  -6   3  -1 76641.0 1917.28  11
  -6   3  -1 78605.1 1739.22  19
  -6   3  -1 78350.9 1593.44   8
  -6   3  -1 78417.6 1541.84  15
  -6   3  -1 79022.5 1609.82  13
  -6   3  -1 77765.7 1677.07   7
  -6   3  -2 8460.36 632.279  11
  -6   3  -2 9891.28 653.559  19
  -6   3  -2 9506.01 560.519   8
  -6   3  -2 9459.20 527.809  15
  -6   3  -2 9786.33 555.182  13
  -6   3  -2 9347.48 605.516   7
  -6   3  -3 274.115 120.107  11
  -6   3  -3 104.631 98.5764  19
  -6   3  -3 226.944 108.314   8
  -6   3  -3 56.1786 88.0309  15
  -6   3  -3 125.036 132.772  13
  -6   3  -4 18633.8 970.545  19
  -6   3  -4 19990.9 785.243   8
  -6   3  -4 20010.8 679.904  15
   6  -3   5 321.099 119.786   5
  -6   3  -5 64.6063 73.4163   8
   6  -3   6 10178.6 511.206   5
  -6   3  -6 11782.3 509.546   8
   6  -3   7 335.289 104.650   5
   6  -3   8-75.2275 60.4781   5
   6  -3   9 2122.78 188.123   5
  -6   3  -9 1718.94 214.246  19
  -6   2  11 709.988 131.857   9
  -6   2  11 629.913 136.574  16
  -6   2  11 411.778 122.150   7
  -6   2  10-223.833 117.400   7
  -6   2  10 73.0170 78.1562   9
  -6   2   9 483.319 172.880   7
  -6   2   9 324.073 122.850   9
  -6   2   8 0.29228 103.819   7
  -6   2   8-12.7259 87.4712   9
  -6   2   7 2307.60 309.164  11
  -6   2   7 1793.58 258.505   9
  -6   2   7 2006.05 288.481   7
  -6   2   6 6029.96 508.823  11
  -6   2   6 4757.09 409.953   9
  -6   2   6 6020.54 414.725   8
  -6   2   6 5796.42 453.729   7
  -6   2   5 10593.9 658.955  11
  -6   2   5 9953.12 530.441   8
  -6   2   5 9675.36 571.343   7
  -6   2   4 15527.3 844.004  11
  -6   2   4 15714.1 665.300   8
  -6   2   4 14955.1 659.230  15
  -6   2   4 14946.2 689.779   7
  -6   2   3 150.626 100.372  19
  -6   2   3 96.6348 102.091   7
  -6   2   3 178.596 138.574  11
  -6   2   3 65.1295 91.5950   8
  -6   2   3 189.916 110.170  15
  -6   2   3 85.2767 144.693  13
  -6   2   2 197.584 84.5419  19
  -6   2   2 65.3139 78.1017   7
  -6   2   2 154.574 114.875  11
  -6   2   2 146.399 119.587   8
  -6   2   2 177.342 104.673  15
  -6   2   2 189.565 144.185  13
  -6   2   1 35715.2 1326.39  11
  -6   2   1 37540.4 1091.01  19
  -6   2   1 36483.6 1044.93   8
  -6   2   1 35814.6 1039.52  15
  -6   2   1 36743.9 1157.01  13
  -6   2   1 37314.8 1108.79   7
  -6   2   0 1690.60 318.085  11
  -6   2   0 1629.22 237.327  19
  -6   2   0 1888.57 258.657   8
  -6   2   0 1784.26 258.405  15
  -6   2   0 2266.01 297.023  13
  -6   2   0 1916.30 262.638   7
  -6   2  -1 388.169 132.325   7
  -6   2  -1 461.943 175.169  11
  -6   2  -1 447.965 139.563  19
  -6   2  -1 358.766 140.452   8
  -6   2  -1 389.865 149.136  15
  -6   2  -1 397.678 162.981  13
  -6   2  -2 666.597 216.603  11
  -6   2  -2 518.186 158.282  19
   6  -2   2 209.818 406.645   3
  -6   2  -2 684.827 156.351   8
  -6   2  -2 754.135 175.843  15
  -6   2  -3 4646.51 464.765  11
  -6   2  -3 5514.86 410.122   8
  -6   2  -3 5498.63 378.206  15
  -6   2  -4 7.30674 96.5309  11
  -6   2  -4 4.26424 91.2039   8
   6  -2   5 747.267 138.502   5
  -6   2  -5 943.158 160.729   8
   6  -2   6 18732.3 699.196   5
   6  -2   7 316.620 95.1921   5
   6  -2   8 3990.11 288.050   5
  -6   2  -9 8.53822 39.6206  19
   6  -2   9-30.9201 51.7487   5
  -6   1  11-1.77821 57.8348   9
  -6   1  11-32.0239 64.4792  16
  -6   1  11-75.0514 94.2749   7
  -6   1  10 775.258 199.282   7
  -6   1  10 770.553 165.925   9
  -6   1   9 1425.41 261.964   7
  -6   1   9 1049.35 204.266   9
  -6   1   8 474.236 175.712   7
   6  -1  -8 437.843 135.728  12
  -6   1   8 241.145 107.691   9
  -6   1   7 1021.06 213.668   7
  -6   1   7 949.094 192.055  11
  -6   1   7 720.750 169.702   9
  -6   1   7 827.684 182.251   8
  -6   1   6 3744.25 373.751  11
  -6   1   6 3301.53 345.875   9
  -6   1   6 3352.17 334.527   8
  -6   1   6 3414.61 365.483   7
  -6   1   5 17995.3 860.729  11
  -6   1   5 19045.1 754.842   8
  -6   1   5 17911.1 773.533   7
  -6   1   4 30565.9 1171.48  11
  -6   1   4 30629.4 945.334   8
  -6   1   4 30271.4 988.562   7
  -6   1   3 7869.93 609.418  11
  -6   1   3 8005.41 475.874  19
  -6   1   3 7654.87 477.710   8
  -6   1   3 7802.09 496.737  15
  -6   1   3 7738.88 501.168   7
  -6   1   2 75.7601 151.129   7
  -6   1   2 160.995 128.016  11
  -6   1   2 80.3718 61.8492  19
  -6   1   2 169.544 101.693   8
  -6   1   2 266.480 135.451  15
  -6   1   1 3611.55 444.308  11
  -6   1   1 3492.21 323.004  19
  -6   1   1 3898.69 353.235   8
  -6   1   1 3805.68 355.803  15
  -6   1   1 3675.86 359.252   7
  -6   1   0 5900.88 583.526  11
  -6   1   0 5591.88 426.277  19
  -6   1   0 5812.05 459.193   8
  -6   1   0 6184.30 470.690  15
  -6   1   0 5949.83 461.311   7
  -6   1  -1 9813.70 735.540  11
   6  -1   1 10295.3 1758.13   3
  -6   1  -1 9807.42 580.496  19
  -6   1  -1 11462.4 612.670   8
  -6   1  -1 10740.5 571.256  15
  -6   1  -1 10470.8 617.923   7
  -6   1  -2 3818.87 462.258  11
  -6   1  -2 3860.22 386.800  19
  -6   1  -2 4322.15 375.888   8
   6  -1   2 3996.29 1130.39   3
  -6   1  -2 4158.15 340.487  15
  -6   1  -3 5316.71 519.820  11
  -6   1  -3 6085.21 428.666   8
   6  -1   3 6567.54 1580.68   3
  -6   1  -4 3104.66 374.562  11
   6  -1   4 3358.16 298.009   5
  -6   1  -4 3824.57 320.617   8
   6  -1   5 5189.57 379.396   5
   6  -1   6 2221.20 238.346   5
   6  -1   7 11468.4 523.913   5
   6  -1   8 92.4637 71.2294   5
  -6   1  -9 92.7220 56.7622  19
  -6   0  12 286.557 86.4207   9
  -6   0  11 77.0218 97.6860   7
  -6   0  11 154.798 75.6310   6
  -6   0  11 81.7864 80.3608   9
  -6   0  10 109.951 122.766   7
  -6   0  10 75.1717 83.5738   6
  -6   0  10-4.85459 68.0308   9
  -6   0   9 160.092 159.300   7
   6   0  -9-9.71910 98.5753  12
  -6   0   9-151.910 90.8785   6
  -6   0   9 176.483 102.255   9
   6   0  -8 3718.40 360.706  12
  -6   0   8 3068.33 355.138   9
  -6   0   8 3467.60 382.859   7
  -6   0   7 2559.34 318.166  11
  -6   0   7 1879.02 293.686   9
  -6   0   7 2387.61 306.198   8
  -6   0   7 2701.74 326.789   7
  -6   0   6 127.552 96.3718   7
  -6   0   6 286.774 133.015  11
  -6   0   6 343.860 135.573   9
  -6   0   6 124.236 118.906   8
  -6   0   5 13850.1 739.139  11
  -6   0   5 12548.1 634.265   8
  -6   0   5 13143.7 662.712   7
  -6   0   4 25525.7 1039.98  11
  -6   0   4 22933.9 849.654   8
  -6   0   4 23583.1 874.287   7
   6   0  -4 24580.5 769.191   4
   6   0  -3 16840.5 643.268   4
  -6   0   3 17297.4 895.202  11
  -6   0   3 16660.0 716.437   8
  -6   0   3 17512.3 754.029   7
  -6   0   2 62.0014 78.5814   7
  -6   0   2 63.3979 123.714  11
  -6   0   2 65.0447 100.769   8
  -6   0   1 1227.47 282.037  11
  -6   0   1 1274.92 217.478   8
  -6   0   1 1559.68 238.200   7
  -6   0   0 429.690 142.174   7
  -6   0   0 406.249 183.507  11
  -6   0   0 398.867 106.949  19
   6   0   0 31.6816 181.747   3
  -6   0   0 514.309 162.983   8
  -6   0  -1 6252.55 606.141  11
  -6   0  -1 6972.95 489.012   8
   6   0   1 6224.15 1413.54   3
  -6   0  -1 6323.57 448.836  19
  -6   0  -1 7055.80 507.811   7
  -6   0  -2-4.61835 111.031  11
  -6   0  -2 61.1757 109.952   8
  -6   0  -3 55.0711 115.673  11
   6   0   3 403.641 106.923   5
   6   0   3 27.5012 459.424   3
  -6   0  -3 111.896 94.3678   8
  -6   0  -4 408.092 147.436  11
   6   0   4 574.776 146.877   5
  -6   0  -5 715.225 160.196  11
   6   0   5 1104.45 186.661   5
   6   0   6 801.331 154.312   5
   6   0   7-35.4739 67.1662   5
   6   0   8 2355.12 209.978   5
  -6  -1  12 407.711 101.111   9
  -6  -1  12 357.671 111.791   7
  -6  -1  11 245.674 133.513   7
   6   1 -11 223.254 96.6421  12
  -6  -1  11 294.887 90.0243   6
  -6  -1  11 198.737 70.4246   9
  -6  -1  10-54.2029 106.676   7
   6   1 -10-34.8699 96.5318  12
  -6  -1  10 43.4504 64.3713   6
  -6  -1  10-38.9196 68.4666   9
  -6  -1   9 4.69765 119.512   7
   6   1  -9 59.9713 141.710  12
  -6  -1   9 209.824 129.031   9
  -6  -1   8 2115.95 303.068   9
  -6  -1   8 2475.36 325.022   7
  -6  -1   7 201.210 127.274   7
  -6  -1   7 40.2332 98.2684   9
  -6  -1   6 3908.19 378.078  11
  -6  -1   6 3709.38 392.142   9
  -6  -1   6 3343.71 367.464   8
  -6  -1   6 4184.26 387.888   7
  -6  -1   5 1833.89 273.180  11
  -6  -1   5 1674.37 257.446   8
  -6  -1   5 1723.63 244.779   7
   6   1  -5 1728.70 217.360   4
  -6  -1   4 5221.56 484.245  11
  -6  -1   4 5061.98 426.091   8
  -6  -1   4 5260.82 415.311   7
   6   1  -4 4876.10 368.928   4
   6   1  -3 34107.9 955.150   4
  -6  -1   3 36686.5 1334.24  11
  -6  -1   3 33552.4 1061.70   8
  -6  -1   3 35176.4 1061.75   7
  -6  -1   2 15214.4 886.701  11
  -6  -1   2 13389.5 686.403   8
  -6  -1   2 14657.7 694.229   7
  -6  -1   1 1639.64 332.698  11
  -6  -1   1 1800.90 274.151   8
  -6  -1   1 1766.66 255.577   7
  -6  -1   0 2871.29 441.279  11
  -6  -1   0 3597.69 370.002   8
   6   1   0 2225.91 828.222   3
  -6  -1   0 3939.66 371.048   7
  -6  -1  -1 276.966 129.249   7
  -6  -1  -1 217.982 178.215  11
   6   1   1 276.730 282.570   3
  -6  -1  -1 176.432 124.789   8
  -6  -1  -2 3441.48 493.022  11
  -6  -1  -2 4997.26 396.231   8
   6   1   2 4211.15 334.261   5
   6   1   2 4351.59 1269.24   3
  -6  -1  -2 4034.27 407.095   7
  -6  -1  -3 92.8018 160.489  11
   6   1   3 80.9043 67.6705   5
  -6  -1  -4 269.953 126.006  11
   6   1   4 268.787 103.986   5
  -6  -1  -5 2126.14 284.173  11
   6   1   5 3442.85 322.340   5
   6   1   6 2973.02 282.182   5
   6   1   7 3568.71 277.607   5
   6   1   8 207.822 68.2962   5
  -6  -2  12 194.178 71.5160   9
  -6  -2  12 22.3243 70.5015   7
  -6  -2  11-21.2564 94.1803   7
   6   2 -11-121.229 87.7623  12
  -6  -2  11-93.9166 74.9775   6
  -6  -2  11-178.157 88.5005   9
   6   2 -10 1336.61 209.060  12
  -6  -2  10 993.632 194.457   9
  -6  -2  10 1583.58 252.865   7
  -6  -2   9 1406.04 247.104   7
   6   2  -9 1120.03 219.337  12
  -6  -2   9 1207.68 221.420   9
  -6  -2   8 476.432 154.479   7
  -6  -2   8 428.022 149.115   9
  -6  -2   7 352.765 135.715   7
   6   2  -7 447.446 133.934   4
  -6  -2   6 513.376 148.484   7
  -6  -2   6 472.347 141.924  11
   6   2  -6 782.816 170.503   4
  -6  -2   6 311.621 150.209   8
  -6  -2   5-81.0507 83.3463   7
  -6  -2   5-8.26736 77.9844  11
   6   2  -5 7.04999 100.374   4
  -6  -2   5 48.7821 138.970   8
  -6  -2   4 6626.80 545.795  11
  -6  -2   4 6098.55 487.575   8
  -6  -2   4 7219.77 474.683   7
   6   2  -4 7342.57 458.971   4
   6   2  -3 13651.3 638.915   4
  -6  -2   3 13049.9 802.764  11
  -6  -2   3 14226.1 742.225   8
  -6  -2   3 14348.5 674.233   7
  -6  -2   2 5891.55 584.969  11
  -6  -2   2 6789.46 523.191   8
  -6  -2   2 6159.45 453.501   7
  -6  -2   1 994.466 192.802   7
  -6  -2   1 948.684 277.328  11
   6   2  -1 1295.20 681.894   3
  -6  -2   1 1021.41 224.494   8
  -6  -2   0 3907.99 554.014  11
  -6  -2   0 5045.40 429.954   8
   6   2   0 4611.18 1200.37   3
  -6  -2   0 4074.09 369.827   7
  -6  -2  -1 575.620 158.271   7
  -6  -2  -1 439.429 207.447  11
   6   2   1 681.426 667.630   3
  -6  -2  -1 832.179 181.044   8
  -6  -2  -2 1021.41 204.232   7
  -6  -2  -2 805.093 224.565  11
   6   2   2 1212.34 199.490   5
  -6  -2  -3 859.425 187.507   7
  -6  -2  -3 609.427 241.587  11
   6   2   3 1153.07 206.052   5
  -6  -2  -4 1330.50 267.094  11
   6   2   4 1632.42 229.482   5
  -6  -2  -4 1552.73 239.381   7
  -6  -2  -5 411.634 126.261   7
  -6  -2  -5 307.526 108.868  11
   6   2   5 370.273 110.032   5
   6   2   6 1388.30 188.665   5
  -6  -2  -6 1095.91 178.898   7
  -6  -2  -7 145.209 67.3342   7
   6   2   7 243.280 79.6133   5
   6   3 -11 1128.68 163.983  12
  -6  -3  11 1489.83 178.565   6
  -6  -3  11 1382.62 180.340   9
  -6  -3  11 1381.18 202.488   7
  -6  -3  10 37.1174 106.618   7
   6   3 -10-82.3177 121.752  12
  -6  -3  10 0.24614 71.5584   9
   6   3  -9 2345.00 287.636  12
  -6  -3   9 2104.14 288.410   9
  -6  -3   9 2463.71 305.502   7
  -6  -3   8 411.957 162.909   7
   6   3  -8 250.039 96.0206   4
  -6  -3   7 5547.33 435.286   7
   6   3  -7 5077.44 381.825   4
  -6  -3   6 1086.89 201.610   7
  -6  -3   6 497.265 134.720  11
   6   3  -6 830.247 170.848   4
  -6  -3   5 60.0119 74.5712   7
  -6  -3   5-108.157 100.473  11
   6   3  -5 58.8600 97.5264   4
  -6  -3   4 262.861 116.149   7
  -6  -3   4 221.981 145.322  11
   6   3  -4 276.696 134.809   4
  -6  -3   4 291.720 160.855   8
  -6  -3   3 485.973 135.308   7
  -6  -3   3 224.439 118.388  11
   6   3  -3 482.449 156.268   4
  -6  -3   3 350.189 180.924   8
   6   3  -2 5867.97 449.848   4
  -6  -3   2 4819.33 536.967  11
  -6  -3   2 4748.72 472.710   8
  -6  -3   2 4837.35 385.147   7
  -6  -3   1 6607.81 676.919  11
  -6  -3   1 8465.79 594.447   8
  -6  -3   1 7404.43 484.952   7
  -6  -3   0 581.892 142.521   7
  -6  -3   0 432.112 229.057  11
  -6  -3   0 629.859 191.916   8
  -6  -3  -1 4520.13 584.654  11
   6   3   1 4927.81 388.765   5
  -6  -3  -1 4706.27 392.147   7
  -6  -3  -2 2598.77 425.394  11
   6   3   2 3118.34 321.847   5
  -6  -3  -2 2862.29 311.768   7
  -6  -3  -3 802.684 175.344   7
  -6  -3  -3 468.223 194.208  11
   6   3   3 575.968 144.996   5
  -6  -3  -4 1696.13 274.086  11
   6   3   4 2613.44 286.793   5
  -6  -3  -4 2479.17 275.213   7
  -6  -3  -5 244.573 79.9299   7
  -6  -3  -5 188.112 85.6389  11
   6   3   5 377.258 117.225   5
   6   3   6 2908.58 251.079   5
   6   4 -11 420.883 102.968  12
  -6  -4  11 176.720 76.8444   9
  -6  -4  11 318.744 106.136   7
  -6  -4  10 302.888 123.105   7
   6   4 -10 101.621 92.0874  12
  -6  -4  10 121.369 71.7243   9
   6   4  -9 1976.58 259.708  12
  -6  -4   9 2293.76 279.927   7
   6   4  -9 1811.04 212.692   4
  -6  -4   8 1262.81 215.951   7
   6   4  -8 1319.55 243.727  12
   6   4  -8 1269.37 198.519   4
   6   4  -7 1360.69 210.630   4
  -6  -4   7 1526.98 233.729   7
  -6  -4   6 388.447 138.146   7
   6   4  -6 332.896 124.007   4
  -6  -4   5 11.9052 77.9983   7
  -6  -4   5-28.4461 106.862  11
   6   4  -5-59.4247 112.380   4
  -6  -4   4 278.646 123.926   7
  -6  -4   4 152.065 118.604  11
   6   4  -4 192.508 125.573   4
  -6  -4   3 1137.79 187.355   7
  -6  -4   3 747.852 211.219  11
   6   4  -2 1852.90 265.179   4
  -6  -4   2 1023.10 274.002  11
  -6  -4   2 1366.00 197.017   7
  -6  -4   1 64.0131 68.2435   7
  -6  -4   1 57.6781 144.684  11
   6   4  -1-0.26654 120.094   4
  -6  -4   0-53.4203 72.9424   7
  -6  -4   0-42.9131 153.587  11
   6   4   0 9.04200 115.808   4
   6   4   0 27.9464 67.5415   5
  -6  -4  -1 423.651 126.821   7
  -6  -4  -1 327.071 218.884  11
   6   4   1 470.328 137.969   5
   6   4   2-72.4165 73.2407   5
  -6  -4  -2-164.850 178.417  11
  -6  -4  -3 1067.06 220.983  11
   6   4   3 1925.47 246.288   5
  -6  -4  -4 1388.35 235.547  11
   6   4   4 2275.17 252.321   5
  -6  -4  -5-23.0485 58.2690  11
   6   4   5-145.121 81.2363   4
   6   4   5 64.7247 67.7485   5
   6   5 -11-92.9948 76.2708  12
  -6  -5  11-94.3516 58.0811   9
   6   5 -10 216.725 105.285  12
   6   5 -10 158.979 63.9275   4
  -6  -5  10 135.118 83.3989   9
  -6  -5  10 349.481 112.051   7
  -6  -5   9 676.644 150.551   7
   6   5  -9 329.356 129.683  12
   6   5  -9 441.460 120.531   4
  -6  -5   8 408.948 139.807   7
   6   5  -8 650.742 166.386  12
   6   5  -8 741.263 162.612   4
  -6  -5   7 998.208 193.264   7
   6   5  -7 1383.50 217.136   4
  -6  -5   6-28.3792 115.608   7
   6   5  -6 167.958 118.752   4
  -6  -5   5 2252.37 252.057   7
   6   5  -5 2757.61 310.426   4
  -6  -5   4 501.841 169.453  11
   6   5  -4 1332.36 241.373   4
  -6  -5   3 2.88875 95.7572  11
   6   5  -3-116.356 140.806   4
  -6  -5   2-57.5316 113.596  11
   6   5  -2 106.884 116.546   4
  -6  -5   1-96.1076 150.992  11
   6   5  -1 16.7838 111.273   4
  -6  -5   0-72.3422 125.916  11
   6   5   0 174.358 121.989   4
   6   5   0 86.0742 68.1171   5
  -6  -5  -1 257.174 166.114  11
   6   5   1 327.284 112.784   4
   6   5   1 278.527 110.100   5
  -6  -5  -2-168.785 159.446  11
   6   5   2 101.643 94.1999   4
   6   5   2-58.2572 78.2197   5
  -6  -5  -3-72.5913 82.3657  11
   6   5   3 71.3120 85.7067   4
   6   5   3 17.8812 71.2990   5
   6   5   4 641.260 119.689   4
   6   5   4 693.516 133.013   5
   6   6 -10-25.8018 69.2890  12
  -6  -6  10 7.99593 49.6385   9
   6   6  -9 69.0801 79.2559  12
   6   6  -9 5.58027 74.2058   4
   6   6  -8 55.0388 98.1113  12
   6   6  -8-7.07491 79.1180   4
   6   6  -7 2456.48 283.066  12
   6   6  -7 2566.52 279.150   4
   6   6  -6 2167.75 274.795   4
   6   6  -5 221.065 121.632   4
  -6  -6   4-38.0080 86.0624  11
   6   6  -4 219.826 125.093   4
  -6  -6   3 241.268 136.519  11
   6   6  -3 614.758 172.946   4
  -6  -6   2-12.0993 103.396  11
   6   6  -2 16.4006 93.4951   4
  -6  -6   1-58.0338 109.646  11
   6   6  -1-59.8303 108.397   4
  -6  -6   0-9.50359 101.592  11
   6   6   0-55.0167 105.001   4
  -6  -6  -1-99.3281 101.385  11
   6   6   1 144.706 88.3499   4
  -6  -6  -2 30.0086 78.5613  11
   6   6   2-92.1476 84.6295   4
  -6  -6  -3-9.01836 78.4430  11
   6   6   3 22.1668 55.4006  17
   6   7  -9-136.709 72.4681  12
   6   7  -9 91.0556 66.1236   4
   6   7  -8-12.0056 80.2627  12
   6   7  -8-32.9828 78.5445   4
   6   7  -7-61.4830 89.4288  12
   6   7  -7 8.20542 83.0567   4
   6   7  -6-39.9304 83.3309  12
   6   7  -6-83.2156 111.207   4
   6   7  -5 366.474 122.853  12
   6   7  -5 287.437 112.572   4
   6   7  -4 136.477 89.4746   4
  -6  -7   3 705.366 162.086  11
   6   7  -3 900.585 166.359   4
  -6  -7   2 188.558 117.311  11
   6   7  -2 278.104 120.359   4
  -6  -7   1 96.3222 109.987  11
   6   7  -1 307.641 108.778   4
  -6  -7   0-114.035 98.4070  11
   6   7   0-79.2652 88.2289   4
  -6  -7  -1 46.1451 69.8614  11
   6   7   1-125.439 66.4488   4
   6   7   1-60.6687 60.1746  17
  -6  -7  -2-9.39958 55.5014  11
   6   7   2 77.2874 57.4257  17
   6   8  -8-32.8728 55.8172   4
   6   8  -7-15.1492 63.4527   4
   6   8  -6 204.430 85.1414   4
   6   8  -5 32.8677 70.3447   4
   6   8  -4 173.083 89.7274   4
   6   8  -3 2.90745 62.0324   4
   6   8  -2-81.4951 78.0388   4
  -6  -8   2-71.2759 74.7561  11
   6   8  -2 0.11169 51.8207  17
  -6  -8   1 58.2903 63.7167  11
   6   8  -1 253.985 78.7646  17
  -7  10   0-36.1809 86.7828  13
  -7  10  -1 740.656 133.567  15
  -7  10  -1 669.361 148.852  13
  -7  10  -2 194.919 82.6164  15
  -7  10  -2 181.951 106.727  13
  -7   9   3 1154.86 237.459  11
  -7   9   2-102.651 146.737  11
  -7   9   2 34.3938 73.5279  15
  -7   9   2 31.1988 94.6254  13
  -7   9   1 715.275 190.773  11
  -7   9   1 807.840 149.139  15
  -7   9   1 820.710 181.587  13
  -7   9   0 242.243 138.048  11
  -7   9   0-36.8075 41.4000   8
  -7   9   0 125.844 87.1811  15
  -7   9   0 347.189 145.583  13
  -7   9  -1 68.5017 75.8201   8
  -7   9  -1 38.5119 90.5043  15
  -7   9  -1 40.5526 110.311  13
  -7   9  -2 422.468 116.382   8
  -7   9  -2 667.045 155.285  15
  -7   9  -2 427.046 137.429  13
  -7   9  -3 3340.25 289.019   8
  -7   9  -3 3153.06 279.613  15
  -7   9  -3 3316.84 273.189  13
  -7   9  -4 735.045 141.748  19
  -7   9  -4 1075.87 152.810  15
  -7   9  -4 1041.81 161.196   8
  -7   9  -5 2023.89 199.380   8
  -7   8   5 255.127 148.814  11
  -7   8   4 2393.14 334.637  11
  -7   8   3 1921.08 272.129  18
  -7   8   3 1803.13 308.417  11
  -7   8   3 1655.47 191.600  15
  -7   8   3 2129.36 241.778  13
  -7   8   2 2149.94 339.988  11
  -7   8   2 2082.35 284.785  18
  -7   8   2 2050.66 224.971  15
  -7   8   2 2545.04 289.805  13
  -7   8   1 0.38296 143.840  11
  -7   8   1-113.086 90.9902   8
  -7   8   1 63.1615 82.6570  15
  -7   8   1-113.120 127.520  13
  -7   8   0 3562.98 397.200  11
  -7   8   0 3883.44 320.293   8
  -7   8   0 3906.04 350.916  15
  -7   8   0 4086.80 391.509  13
  -7   8  -1-165.856 128.723  11
  -7   8  -1-4.98738 70.9525  19
  -7   8  -1-4.02453 78.4392   8
  -7   8  -1 38.2309 94.3137  15
  -7   8  -1 67.3778 113.040  13
  -7   8  -2-20.7597 67.6754  19
  -7   8  -2 21.6883 89.1380   8
  -7   8  -2 44.4892 90.5832  15
  -7   8  -2 173.980 124.733  13
  -7   8  -3 6204.67 455.775  19
  -7   8  -3 6392.07 435.070   8
  -7   8  -3 6653.22 420.440  15
  -7   8  -3 7086.81 415.417  13
  -7   8  -4-90.1070 64.2684  19
  -7   8  -4-67.4876 102.200   8
  -7   8  -4-161.679 90.2261  15
  -7   8  -4 0.90853 82.6497  13
  -7   8  -5 58.2637 71.8401  19
  -7   8  -5 64.3076 68.0007   8
  -7   8  -5 97.7755 68.6389  15
  -7   8  -6 849.755 125.149   8
  -7   7   6-144.333 123.682  11
  -7   7   6-204.438 119.829  16
  -7   7   5 64.7311 115.966  11
  -7   7   5 93.8037 100.993  16
  -7   7   4 1506.80 295.749  11
  -7   7   4 1425.83 248.958  18
  -7   7   4 1415.76 240.566  16
  -7   7   4 1527.93 205.248  13
  -7   7   3 557.480 190.719  11
  -7   7   3 415.188 167.463  18
  -7   7   3 469.469 129.633  15
  -7   7   3 529.024 155.698  13
  -7   7   2 7193.17 615.664  11
  -7   7   2 6905.56 404.052   8
  -7   7   2 6986.36 503.362  18
  -7   7   2 6365.81 423.569  15
  -7   7   2 7250.40 508.953  13
  -7   7   1 4087.75 465.483  11
  -7   7   1 4242.77 342.006   8
  -7   7   1 4036.58 357.170  15
  -7   7   1 4596.31 415.555  13
  -7   7   0 487.636 168.132  11
  -7   7   0 449.272 155.807  19
  -7   7   0 405.077 143.838   8
  -7   7   0 419.235 140.149  15
  -7   7   0 535.191 184.034  13
  -7   7  -1 8485.73 616.003  11
  -7   7  -1 8018.27 572.720  19
  -7   7  -1 8462.23 521.999   8
  -7   7  -1 8075.53 520.362  15
  -7   7  -1 8506.93 544.463  13
  -7   7  -2 1046.90 211.646  19
  -7   7  -2 1330.74 213.790   8
  -7   7  -2 1217.67 207.823  15
  -7   7  -2 1199.98 209.819  13
  -7   7  -3 9.23697 64.9179  19
  -7   7  -3 128.607 116.560   8
  -7   7  -3 11.1362 90.0575  15
  -7   7  -3-85.5236 123.671  13
  -7   7  -4 1670.86 254.825  19
  -7   7  -4 1593.59 216.837   8
  -7   7  -4 1470.41 193.671  15
  -7   7  -4 1682.61 201.855  13
  -7   7  -5 92.7656 80.5028  19
  -7   7  -5 92.4350 79.4306   8
  -7   7  -5 87.5220 61.3496  15
  -7   7  -6 6769.59 428.015  19
  -7   7  -6 7779.07 368.242   8
  -7   6   7 86.6143 106.332  11
  -7   6   7 235.735 107.597  16
  -7   6   6 53.7315 108.134  11
  -7   6   6 590.929 183.278  16
  -7   6   5 675.926 202.843  11
  -7   6   5 415.015 156.929  16
  -7   6   4 598.301 207.419  11
  -7   6   4 671.705 172.170  16
  -7   6   4 422.080 134.112  15
  -7   6   4 562.307 173.996  13
  -7   6   3 2619.68 403.165  11
  -7   6   3 2381.90 244.673   8
  -7   6   3 2618.11 319.906  18
  -7   6   3 1955.35 255.150  16
  -7   6   3 2648.63 282.715  15
  -7   6   3 2768.32 313.553  13
  -7   6   2 1.71727 107.135  11
  -7   6   2-36.2736 86.5008   8
  -7   6   2 77.3927 97.0907  15
  -7   6   2 12.4738 152.846  13
  -7   6   1 828.325 231.600  11
  -7   6   1 937.766 201.837  19
  -7   6   1 1043.58 194.761   8
  -7   6   1 878.910 198.298  15
  -7   6   1 1173.66 245.579  13
  -7   6   0 5731.79 542.267  11
  -7   6   0 6129.15 510.901  19
  -7   6   0 5982.60 444.297   8
  -7   6   0 5949.53 453.904  15
  -7   6   0 6247.17 502.378  13
  -7   6  -1 9225.28 656.849  11
  -7   6  -1 9076.09 620.477  19
  -7   6  -1 9245.42 569.213   8
  -7   6  -1 8992.53 556.327  15
  -7   6  -1 9004.72 570.992  13
  -7   6  -2 1147.49 217.612  11
  -7   6  -2 1215.36 246.507  19
  -7   6  -2 1424.24 227.085   8
  -7   6  -2 1290.33 222.464  15
  -7   6  -2 1228.09 218.634  13
  -7   6  -3 8485.99 599.292  19
  -7   6  -3 8430.51 530.169   8
  -7   6  -3 8504.18 475.518  15
  -7   6  -3 8785.24 486.021  13
  -7   6  -4 436.784 128.153  19
  -7   6  -4 440.271 130.491   8
  -7   6  -4 508.945 131.383  15
  -7   6  -5 3403.71 361.106  19
  -7   6  -5 3591.11 296.158   8
  -7   6  -6 616.196 137.347  19
  -7   6  -6 668.577 121.881   8
  -7   6  -7 5791.06 374.354  19
  -7   5   8 1609.24 227.429  16
  -7   5   7 542.680 160.122  11
  -7   5   7 383.896 150.551  16
  -7   5   6 429.153 154.964  11
  -7   5   5 257.520 158.801  11
  -7   5   4 314.941 165.922  11
  -7   5   4 218.604 83.0198   8
  -7   5   4 82.4189 99.5161  15
  -7   5   3 249.485 130.992  11
  -7   5   3 102.947 84.4176   8
  -7   5   3 159.058 119.099  15
  -7   5   3 133.209 149.289  13
  -7   5   2 2775.93 402.688  11
  -7   5   2 2494.18 319.184  19
  -7   5   2 2486.20 284.863   8
  -7   5   2 2453.74 292.381  15
  -7   5   2 2928.30 344.352  13
  -7   5   2 2085.16 253.307   7
  -7   5   1 3751.62 447.033  11
  -7   5   1 4042.57 405.629  19
  -7   5   1 3850.68 351.336   8
  -7   5   1 3611.44 361.967  15
  -7   5   1 3611.29 378.453  13
  -7   5   1 3866.81 340.521   7
  -7   5   0 4146.72 459.710  11
  -7   5   0 4127.20 413.568  19
  -7   5   0 4003.81 367.787   8
  -7   5   0 3981.13 376.040  15
  -7   5   0 4386.53 415.640  13
  -7   5   0 3876.48 359.484   7
  -7   5  -1 707.681 173.966   7
  -7   5  -1 675.020 191.456  11
  -7   5  -1 779.604 196.808  19
  -7   5  -1 775.959 182.501   8
  -7   5  -1 487.626 148.373  15
  -7   5  -1 840.084 207.547  13
  -7   5  -2 1509.84 258.297  11
  -7   5  -2 1525.90 268.822  19
  -7   5  -2 1731.87 257.096   8
  -7   5  -2 1621.86 240.066  15
  -7   5  -2 1938.17 279.202  13
  -7   5  -2 1553.88 245.245   7
  -7   5  -3 2349.91 340.943  19
  -7   5  -3 2815.11 308.640   8
  -7   5  -3 2699.29 276.556  15
  -7   5  -3 2250.91 286.961   7
  -7   5  -4 21844.5 978.735  19
  -7   5  -4 23802.5 825.676   8
  -7   5  -4 23563.1 697.084  15
  -7   5  -4 21515.8 871.747   7
  -7   5  -5 1792.60 271.188  19
  -7   5  -5 1769.86 209.458   8
  -7   5  -5 1501.43 227.978   7
  -7   5  -6 204.393 87.1995   7
  -7   5  -6 87.3911 86.1764  19
  -7   5  -6 56.0674 53.1569   8
  -7   5  -7 94.6753 53.6289   7
  -7   5  -7 428.133 115.311  19
  -7   4   9 479.152 131.578  16
  -7   4   8 156.422 107.243  11
  -7   4   8 244.643 123.662  16
  -7   4   7 1548.43 241.245  11
  -7   4   7 1508.50 218.291   7
  -7   4   6 1245.60 215.147   7
  -7   4   6 1512.22 273.296  11
  -7   4   5 112.366 89.4460   7
  -7   4   5-55.4244 98.6657  11
  -7   4   5 96.0720 104.803   8
  -7   4   4 87.2249 82.9811   7
  -7   4   4 62.6330 106.062  11
  -7   4   4 71.0170 85.3317   8
  -7   4   3 357.531 108.142   7
  -7   4   3 455.349 187.457  11
  -7   4   3 315.324 143.027   8
  -7   4   3 385.726 149.282  15
  -7   4   3 449.026 184.495  13
  -7   4   2 6087.91 569.889  11
  -7   4   2 6406.97 487.063  19
  -7   4   2 5911.54 432.106   8
  -7   4   2 5587.01 444.910  15
  -7   4   2 6293.30 495.502  13
  -7   4   2 5796.61 438.069   7
  -7   4   1 228.193 117.187   7
  -7   4   1 370.751 174.739  11
  -7   4   1 204.149 100.423  19
  -7   4   1 322.210 143.951   8
  -7   4   1 563.665 178.722  15
  -7   4   1 556.306 195.611  13
  -7   4   0 243.941 113.957   7
  -7   4   0 170.634 117.487  11
  -7   4   0 318.506 131.068  19
  -7   4   0 252.239 124.484   8
  -7   4   0 191.508 134.189  15
  -7   4  -1 396.043 132.096   7
  -7   4  -1 501.344 185.207  11
  -7   4  -1 593.417 173.585  19
  -7   4  -1 518.695 151.106   8
  -7   4  -1 381.458 138.028  15
  -7   4  -1 764.358 203.601  13
  -7   4  -2 444.265 163.866   7
  -7   4  -2 81.2934 89.6063  11
  -7   4  -2 498.735 171.108  19
  -7   4  -2 419.478 155.712   8
  -7   4  -2 360.401 135.634  15
  -7   4  -3 800.271 192.522   7
  -7   4  -3 927.885 197.345  11
  -7   4  -3 768.938 199.419  19
  -7   4  -3 848.002 179.941   8
  -7   4  -3 955.304 177.684  15
  -7   4  -4 3299.92 394.177  19
  -7   4  -4 3909.81 340.848   8
  -7   4  -4 3355.41 367.562   7
  -7   4  -5 2328.07 318.391  19
  -7   4  -5 2730.14 252.278   8
  -7   4  -5 2082.27 283.785   7
  -7   4  -6 3696.43 365.613  19
  -7   4  -6 3255.92 336.597   7
  -7   4  -7 550.156 119.681   7
  -7   4  -7 666.070 144.772  19
  -7   3   9-38.1796 75.1545   7
  -7   3   8 208.862 122.802   7
  -7   3   8 44.4970 76.6378  11
  -7   3   7 1083.04 216.847   7
  -7   3   7 1092.55 222.643  11
  -7   3   6 3903.29 412.744  11
  -7   3   6 3276.56 299.966   8
  -7   3   6 3545.02 343.126   7
  -7   3   5 2654.38 353.106  11
  -7   3   5 2147.80 258.644   8
  -7   3   5 1899.40 251.888   7
  -7   3   4 164.875 107.288   7
  -7   3   4 53.5341 100.439  11
  -7   3   4 76.2437 107.633   8
  -7   3   3 66.4708 85.8190   7
  -7   3   3 7.44091 112.308  11
  -7   3   3 53.5254 61.3692  19
  -7   3   3 179.158 117.233   8
  -7   3   3 152.402 139.658  15
  -7   3   2-27.1212 80.9882   7
  -7   3   2-112.637 152.407  11
  -7   3   2 42.5157 83.0260  19
  -7   3   2-62.3252 118.582   8
  -7   3   2-70.0620 140.586  15
  -7   3   1 1889.82 330.456  11
  -7   3   1 2061.35 275.498  19
  -7   3   1 2009.30 276.274   8
  -7   3   1 1745.18 266.648  15
  -7   3   1 1600.40 249.489   7
  -7   3   0 1552.73 246.446   7
  -7   3   0 1490.58 283.418  11
  -7   3   0 1559.36 254.857  19
  -7   3   0 1661.06 251.225   8
  -7   3   0 1399.60 237.373  15
  -7   3  -1 5959.53 558.696  11
  -7   3  -1 6281.84 506.266  19
  -7   3  -1 6809.79 492.389   8
  -7   3  -1 6113.98 454.884  15
  -7   3  -1 6193.95 497.680   7
  -7   3  -2 102.531 104.196   7
  -7   3  -2 39.6516 103.433  11
  -7   3  -2 130.340 82.2188  19
  -7   3  -2 26.2274 108.444   8
  -7   3  -2 312.754 131.539  15
  -7   3  -3 1413.84 254.968   7
  -7   3  -3 1416.07 252.368  11
  -7   3  -3 1566.40 268.506  19
  -7   3  -3 1640.67 230.831   8
  -7   3  -3 1332.05 198.727  15
  -7   3  -4 4787.15 462.317  19
  -7   3  -4 5797.94 391.429   8
  -7   3  -4 5562.12 484.442   7
  -7   3  -5 2537.55 324.214  19
  -7   3  -5 3510.56 272.672   8
  -7   3  -5 2915.18 340.836   7
  -7   3  -6 4093.79 375.014  19
  -7   3  -6 3991.20 366.892   7
  -7   3  -7 909.484 157.453   7
  -7   3  -7 942.597 161.171  19
  -7   2  10 17.8963 77.3884  16
  -7   2   9 203.968 110.555   7
  -7   2   8 545.261 168.059   7
  -7   2   7 179.018 105.557   7
  -7   2   7 586.542 160.094  11
  -7   2   6 4137.69 412.841  11
  -7   2   6 3196.65 311.427   8
  -7   2   6 3279.89 344.370   7
  -7   2   5 1114.46 206.985   7
  -7   2   5 1270.23 257.509  11
  -7   2   5 1151.65 205.970   8
  -7   2   4-0.27031 79.3969   7
  -7   2   4 240.317 143.933  11
  -7   2   4 218.907 131.068   8
  -7   2   3 165.063 94.7330   7
  -7   2   3 391.031 152.713  11
  -7   2   3 342.923 117.579  19
  -7   2   3 234.437 112.131   8
  -7   2   2 7582.24 639.333  11
  -7   2   2 7270.25 480.718  19
  -7   2   2 7173.21 492.299   8
  -7   2   2 6463.06 479.493   7
  -7   2   1 8233.97 669.950  11
  -7   2   1 8150.86 515.360  19
  -7   2   1 8302.24 541.408   8
  -7   2   1 7566.08 548.541  15
  -7   2   1 8304.02 555.409   7
  -7   2   0 477.660 160.012   7
  -7   2   0 617.944 203.304  11
  -7   2   0 352.729 122.509  19
  -7   2   0 604.163 175.396   8
  -7   2   0 352.183 148.010  15
  -7   2  -1 3024.36 421.883  11
  -7   2  -1 3350.62 354.910  19
  -7   2  -1 3651.69 371.846   8
  -7   2  -1 3197.60 358.504   7
  -7   2  -2 143.682 123.590   7
  -7   2  -2-5.84449 112.078  11
  -7   2  -2-105.202 94.6552  19
  -7   2  -2-18.6289 85.6361   8
  -7   2  -3 1749.57 283.767  11
  -7   2  -3 1983.83 294.418  19
  -7   2  -3 2470.80 274.859   8
  -7   2  -3 2348.43 329.827   7
  -7   2  -4 3594.52 347.266  11
  -7   2  -4 4014.25 401.820  19
  -7   2  -4 4685.52 332.287   8
  -7   2  -4 4104.76 420.775   7
  -7   2  -5 923.338 205.884   7
  -7   2  -5 916.768 197.893  19
  -7   2  -6 5139.32 398.248  19
  -7   2  -6 5336.54 412.964   7
  -7   2  -7 50.1419 59.9460   7
  -7   2  -7 14.4359 46.3945  19
  -7   1  10 615.057 152.958   7
  -7   1   9 42.1730 94.2943   7
  -7   1   8 264.870 143.583   7
  -7   1   7 189.844 129.848   7
  -7   1   7 357.790 140.401  11
  -7   1   6 1427.43 232.875   7
  -7   1   6 1487.40 250.108  11
  -7   1   6 1940.42 265.735   8
  -7   1   5 983.526 196.930   7
  -7   1   5 1038.90 214.368  11
  -7   1   5 783.042 186.713   8
  -7   1   4 5382.89 520.232  11
  -7   1   4 5265.52 418.498   8
  -7   1   4 5201.57 424.517   7
  -7   1   3 1022.48 202.631   7
  -7   1   3 973.810 238.741  11
  -7   1   3 729.490 187.562   8
  -7   1   2 707.665 181.048   7
  -7   1   2 743.686 221.248  11
   7  -1  -2 821.019 163.228   4
  -7   1   2 718.485 197.150   8
  -7   1   1 684.381 175.997   7
  -7   1   1 467.382 210.486  11
  -7   1   1 298.372 88.4285  19
  -7   1   1 406.271 144.471   8
  -7   1   0 9997.81 761.842  11
  -7   1   0 8766.27 525.146  19
  -7   1   0 10056.0 606.374   8
  -7   1   0 9907.19 619.414   7
  -7   1  -1 732.956 188.727   7
  -7   1  -1 593.465 193.595  11
  -7   1  -1 565.590 143.322  19
  -7   1  -1 419.342 147.769   8
  -7   1  -2 3764.04 444.928  11
  -7   1  -2 4121.99 380.730  19
  -7   1  -2 5028.72 394.132   8
  -7   1  -2 4662.20 432.599   7
  -7   1  -3 3120.39 369.789  11
  -7   1  -3 3371.74 352.155  19
  -7   1  -3 4096.09 335.579   8
  -7   1  -3 4357.93 418.436   7
  -7   1  -4 5913.79 447.466  11
  -7   1  -4 6131.27 474.981  19
  -7   1  -4 7229.02 535.079   7
  -7   1  -5-13.2225 75.9591   7
  -7   1  -5 21.4158 59.8946  19
  -7   1  -6 1490.63 203.814  19
  -7   1  -6 2043.26 243.993   7
  -7   1  -7 184.468 74.5902   7
  -7   0  10 307.452 124.588   7
  -7   0   9 143.333 120.723   7
   7   0  -9 191.046 110.702  12
  -7   0   8 522.667 174.857   7
   7   0  -8 611.641 149.030  12
  -7   0   7 82.1421 128.731   7
  -7   0   7-49.2686 83.4771  11
  -7   0   6 241.744 117.954   7
  -7   0   6 476.725 156.142  11
  -7   0   6 367.362 139.852   8
  -7   0   5 4035.17 425.813  11
  -7   0   5 4167.14 397.861   8
  -7   0   5 4390.45 397.793   7
  -7   0   4 606.136 169.968   7
  -7   0   4 386.138 153.573  11
  -7   0   4 457.521 167.406   8
  -7   0   3 340.637 144.545   7
  -7   0   3 492.380 175.325  11
   7   0  -3 449.756 129.401   4
  -7   0   3 510.247 175.123   8
  -7   0   2 830.240 183.875   7
  -7   0   2 684.020 224.914  11
   7   0  -2 690.539 171.412   4
  -7   0   2 913.574 219.056   8
  -7   0   1 2886.93 420.116  11
  -7   0   1 3186.98 352.405   8
  -7   0   1 3364.47 353.554   7
  -7   0   0 185.381 133.765   7
  -7   0   0 180.982 167.855  11
  -7   0   0 316.851 159.309   8
  -7   0  -1 3266.86 436.984  11
  -7   0  -1 3824.95 368.261   8
  -7   0  -1 3547.48 367.804   7
  -7   0  -2 1756.16 313.465  11
  -7   0  -2 2039.38 244.864   8
  -7   0  -2 2125.63 294.381   7
  -7   0  -3 1496.59 260.239  11
  -7   0  -3 1631.86 228.831  19
  -7   0  -3 2019.80 284.163   7
  -7   0  -4 1383.10 223.176  11
  -7   0  -4 1772.08 228.649  19
  -7   0  -5 2749.08 266.113  19
  -7   0  -5 3322.05 322.745   7
  -7   0  -6 664.163 138.261   7
  -7  -1  10 499.377 146.129   7
  -7  -1   9 290.786 140.132   7
   7   1  -9 393.185 127.897  12
  -7  -1   8 1210.29 227.563   7
   7   1  -8 1486.27 219.602  12
  -7  -1   7 1047.62 197.976   7
  -7  -1   6-34.3950 99.2191   7
  -7  -1   6-247.312 113.881  11
  -7  -1   6-40.6497 126.029   8
  -7  -1   5 790.957 189.460   7
  -7  -1   5 828.032 210.647  11
   7   1  -5 985.570 170.988   4
  -7  -1   5 880.105 217.789   8
  -7  -1   4 538.761 155.946   7
  -7  -1   4 413.974 166.532  11
   7   1  -4 423.820 117.243   4
  -7  -1   4 197.670 157.136   8
  -7  -1   3 1124.80 207.168   7
  -7  -1   3 824.150 226.167  11
   7   1  -3 1232.89 193.197   4
  -7  -1   3 847.788 217.039   8
  -7  -1   2 76.7947 101.397   7
  -7  -1   2-114.808 142.484  11
   7   1  -2 34.5324 111.669   4
  -7  -1   2-55.7534 138.366   8
  -7  -1   1 86.0869 86.4558   7
  -7  -1   1 169.246 152.315  11
  -7  -1   1-32.5102 144.017   8
  -7  -1   0 917.039 190.570   7
  -7  -1   0 810.995 239.730  11
  -7  -1   0 1148.72 224.820   8
  -7  -1  -1 3419.62 464.078  11
  -7  -1  -1 4351.87 373.744   8
  -7  -1  -1 3996.09 386.848   7
  -7  -1  -2 2421.66 360.697  11
  -7  -1  -2 3392.96 347.907   7
  -7  -1  -3 329.420 135.858   7
  -7  -1  -3 177.740 122.681  11
  -7  -1  -4 299.154 111.554   7
  -7  -1  -4 253.903 85.4237  11
  -7  -1  -5 196.954 91.6601   7
  -7  -2  10 555.077 147.764   7
   7   2 -10 7.41163 77.4027  12
   7   2  -9 2851.17 266.588  12
  -7  -2   9 2819.33 305.008   7
  -7  -2   8-91.2214 96.9077   7
   7   2  -8 18.2145 103.047  12
  -7  -2   7-73.6393 110.649   7
  -7  -2   6 764.443 180.935   7
  -7  -2   6 623.803 157.912  11
   7   2  -6 983.293 167.435   4
  -7  -2   5 1459.88 260.315  11
  -7  -2   5 1578.40 278.396   8
  -7  -2   5 2010.88 267.374   7
   7   2  -5 1843.70 235.622   4
  -7  -2   4 245.789 105.345   7
  -7  -2   4 278.007 124.791  11
   7   2  -4 359.179 132.646   4
  -7  -2   4 365.914 158.015   8
  -7  -2   3 150.102 84.9307   7
  -7  -2   3 175.625 147.731  11
   7   2  -3 168.405 104.639   4
  -7  -2   3 159.717 154.670   8
  -7  -2   2 1208.38 201.799   7
  -7  -2   2 963.128 260.250  11
   7   2  -2 1160.85 201.822   4
  -7  -2   2 1163.29 238.708   8
  -7  -2   1-71.5661 91.9630   7
  -7  -2   1-24.0167 139.160  11
   7   2  -1-19.5715 100.814   4
  -7  -2   1 212.873 172.731   8
  -7  -2   0 831.355 179.211   7
  -7  -2   0 603.102 237.131  11
  -7  -2   0 741.188 188.207   8
  -7  -2  -1 344.226 129.013   7
  -7  -2  -1 148.080 124.104  11
  -7  -2  -1 225.142 125.124   8
  -7  -2  -2 20.5232 86.6237   7
  -7  -2  -2 173.627 139.748  11
  -7  -2  -3 2672.45 318.229  11
  -7  -2  -3 3479.24 320.123   7
  -7  -2  -4 903.055 156.829  11
  -7  -2  -4 1885.09 219.432   7
  -7  -3  10 103.421 86.4569   7
   7   3 -10 121.473 78.1094  12
  -7  -3   9-19.4782 83.7276   7
   7   3  -9-133.567 99.8024  12
  -7  -3   8 117.187 102.148   7
   7   3  -8 318.759 139.861  12
  -7  -3   7 1757.00 235.414   7
   7   3  -7 1670.41 197.148   4
  -7  -3   6 1947.42 241.456   7
   7   3  -6 1875.03 231.331   4
  -7  -3   5 97.0946 89.6759   7
  -7  -3   5 144.492 105.132  11
   7   3  -5 296.912 110.050   4
  -7  -3   4-14.0981 78.0592   7
  -7  -3   4 20.9217 80.4769  11
   7   3  -4 40.2207 91.7546   4
  -7  -3   3 382.160 115.499   7
  -7  -3   3 396.310 168.337  11
   7   3  -3 605.672 151.424   4
  -7  -3   2 117.396 76.7281   7
  -7  -3   2 39.1438 100.674  11
   7   3  -2 215.000 130.293   4
  -7  -3   1 18.7666 73.0134   7
  -7  -3   1 56.4206 138.625  11
   7   3  -1 72.4452 108.423   4
  -7  -3   0 46.1323 67.5567   7
  -7  -3   0 132.462 141.038  11
   7   3   0 149.807 133.732   4
  -7  -3  -1 570.501 139.827   7
  -7  -3  -1 309.101 165.790  11
   7   3   1 776.674 170.900   4
  -7  -3  -2 904.027 216.366  11
   7   3   2 1496.34 217.229   4
  -7  -3  -2 1226.83 180.921   7
  -7  -3  -3-2.61215 62.3016   7
  -7  -3  -3 20.0135 82.6057  11
   7   3   3 97.5703 86.1537   4
   7   3   4 1501.09 184.442   4
  -7  -3  -4 716.293 130.686  11
  -7  -4   9 29.4038 73.7671   7
   7   4  -9 302.000 109.523  12
  -7  -4   8 586.081 133.673   7
   7   4  -8 711.007 160.251  12
   7   4  -8 638.821 128.500   4
  -7  -4   7 350.415 121.812   7
   7   4  -7 387.381 104.782   4
  -7  -4   6-126.133 89.3378   7
   7   4  -6-39.7289 81.4747   4
  -7  -4   5 6.09392 85.9763   7
  -7  -4   5 79.9326 67.0655  11
   7   4  -5 152.324 105.093   4
  -7  -4   4 2585.27 255.210   7
   7   4  -4 3218.29 314.244   4
  -7  -4   3-56.7755 73.2355   7
  -7  -4   3 232.206 136.056  11
   7   4  -3 197.924 113.120   4
  -7  -4   2 50.9972 60.7414   7
  -7  -4   2 166.960 113.560  11
   7   4  -2 258.822 126.865   4
  -7  -4   1 664.687 133.141   7
  -7  -4   1 247.673 134.635  11
   7   4  -1 553.354 154.558   4
  -7  -4   0 200.525 148.340  11
   7   4   0 321.749 136.026   4
  -7  -4  -1-36.6580 95.8832  11
   7   4   1 76.9473 93.0447   4
  -7  -4  -2 89.3785 73.9232  11
   7   4   2 122.371 91.6353   4
  -7  -4  -3 164.818 83.7468  11
   7   4   3 546.538 114.613   4
   7   5  -9 12.4304 65.7115  12
   7   5  -8 96.5911 89.7992  12
   7   5  -8-41.9174 67.9079   4
   7   5  -7 241.602 120.751  12
   7   5  -7 215.782 96.3342   4
   7   5  -6 472.783 110.696   4
   7   5  -5 1070.26 179.573   4
  -7  -5   4 212.301 114.310  11
   7   5  -4 147.114 104.833   4
  -7  -5   3 67.1165 84.9965  11
   7   5  -3-16.5029 90.2305   4
  -7  -5   2 655.832 168.632  11
   7   5  -2 1128.86 188.303   4
  -7  -5   1 43.8713 80.6611  11
   7   5  -1 15.9655 78.3076   4
  -7  -5   0 53.3534 90.6538  11
   7   5   0 419.117 119.091   4
  -7  -5  -1 121.968 100.102  11
   7   5   1-164.607 95.0053   4
  -7  -5  -2 13.4676 57.9911  11
   7   5   2 359.236 95.8287   4
   7   6  -7 209.731 90.8678  12
   7   6  -7 84.3066 65.2615   4
   7   6  -6 278.317 106.328  12
   7   6  -6 134.141 72.5210   4
   7   6  -5 40.8187 92.8802   4
   7   6  -4 62.8519 76.5858   4
  -7  -6   3 182.347 108.970  11
   7   6  -3 713.456 147.849   4
  -7  -6   2 184.109 91.4314  11
   7   6  -2 40.3726 92.6318   4
  -7  -6   1 177.435 92.4268  11
   7   6  -1 219.112 94.9828   4
  -7  -6   0-63.5728 69.6071  11
   7   6   0 68.2010 68.2611   4
   7   7  -5 208.974 78.0576   4
   7   7  -4 75.8782 71.4937   4
  -8   8   1 209.402 93.9046  15
  -8   8   0 28.0758 86.4033  15
  -8   8  -1 23.1294 85.6169  15
  -8   7   4-118.247 131.058  11
  -8   7   3 133.441 135.257  11
  -8   7   2 692.517 185.174  11
  -8   7   1-38.2439 85.8969  11
  -8   7   1 74.8761 66.5001   8
  -8   7   1 182.313 107.924  15
  -8   7   0 57.8672 93.9234  11
  -8   7   0 312.491 101.032   8
  -8   7   0 142.278 87.9825  15
  -8   7  -1 7431.15 421.702   8
  -8   7  -1 7473.40 427.887  15
  -8   7  -2 1538.77 211.135  19
  -8   7  -2 1740.10 214.988   8
  -8   7  -2 1543.94 188.607  15
  -8   7  -3 786.024 152.797  19
  -8   7  -3 998.045 159.014   8
  -8   6   5 408.280 138.360  11
  -8   6   4 708.809 185.343  11
  -8   6   3 158.162 114.273  11
  -8   6   3 25.1905 77.1536   8
  -8   6   2 2258.55 317.159  11
  -8   6   2 2082.10 225.038   8
  -8   6   1 403.513 157.481  11
  -8   6   1 155.311 94.3512   8
  -8   6   1 118.353 99.7718  15
  -8   6   0-12.2600 98.7545  11
  -8   6   0 29.4047 71.1246  19
  -8   6   0 153.468 92.0565   8
  -8   6   0-16.0623 106.367  15
  -8   6  -1 53.8220 77.3194  11
  -8   6  -1 46.4817 69.0367  19
  -8   6  -1-34.7413 97.6358   8
  -8   6  -1 72.7744 92.4013  15
  -8   6  -2-18.0712 63.4692  19
  -8   6  -2 39.5689 80.3867   8
  -8   6  -2 110.342 102.263  15
  -8   6  -3 3337.50 317.395  19
  -8   6  -3 4337.22 314.856   8
  -8   6  -4 1403.41 200.177  19
  -8   6  -4 1691.51 179.779   8
  -8   5   6 458.511 144.105  11
  -8   5   6 230.039 108.663  16
  -8   5   5 516.277 168.574  11
  -8   5   5 367.938 142.487  16
  -8   5   4 332.184 157.347  11
  -8   5   4 19.1467 71.2790   8
  -8   5   4 332.660 129.452  16
  -8   5   3 4089.86 434.522  11
  -8   5   3 3486.46 285.843   8
  -8   5   2 132.922 106.933  11
  -8   5   2 144.364 100.753   8
  -8   5   1 2852.24 362.097  11
  -8   5   1 3031.17 304.104   8
  -8   5   1 2952.39 313.072  15
  -8   5   0 1852.50 286.314  11
  -8   5   0 1757.30 244.257  19
  -8   5   0 1872.54 241.082   8
  -8   5   0 1698.65 237.970  15
  -8   5   0 1385.66 186.294   7
  -8   5  -1 412.876 118.826   7
  -8   5  -1 552.013 163.572  11
  -8   5  -1 426.903 124.633  19
  -8   5  -1 313.011 111.713   8
  -8   5  -1 458.776 141.472  15
  -8   5  -2 1056.45 165.034   7
  -8   5  -2 1239.97 207.752  11
  -8   5  -2 1133.30 200.615  19
  -8   5  -2 1542.48 221.224   8
  -8   5  -3 916.878 150.862   7
  -8   5  -3 1361.87 220.382  19
  -8   5  -3 1468.28 202.044   8
  -8   5  -4 4676.01 370.863  19
  -8   5  -4 5143.26 302.293   8
  -8   5  -5 5509.38 359.234  19
  -8   4   7 305.426 117.695  16
  -8   4   6-31.3601 107.736  11
  -8   4   5 51.5037 85.9224   7
  -8   4   5-85.3613 109.094  11
  -8   4   5 2.74523 97.2810   8
  -8   4   4 1016.00 172.504   7
  -8   4   4 1159.16 229.321  11
  -8   4   4 700.960 146.506   8
  -8   4   3 88.0119 76.7306   7
  -8   4   3 185.045 136.199  11
  -8   4   3 6.12939 101.792   8
  -8   4   2 65.7235 79.9660   7
  -8   4   2 5.57001 100.445  11
  -8   4   2 181.733 118.635   8
  -8   4   1 3723.74 445.684  11
  -8   4   1 3861.47 350.396  19
  -8   4   1 3818.88 349.602   8
  -8   4   1 3047.60 302.439   7
  -8   4   0 1642.26 274.841  11
  -8   4   0 1617.06 236.811  19
  -8   4   0 1785.09 249.175   8
  -8   4   0 1380.59 210.084   7
  -8   4  -1 2509.79 319.261  11
  -8   4  -1 2849.24 314.137  19
  -8   4  -1 3131.48 314.472   8
  -8   4  -1 2248.43 267.269   7
  -8   4  -2 5110.18 414.478  11
  -8   4  -2 4972.16 411.083  19
  -8   4  -2 5717.06 395.544   8
  -8   4  -2 4813.93 385.562   7
  -8   4  -3 452.106 108.372   7
  -8   4  -3 768.000 156.118  19
  -8   4  -3 942.406 159.005   8
  -8   4  -4-70.0830 77.9345   7
  -8   4  -4 21.1323 52.2949  19
  -8   4  -4 20.3685 63.4207   8
  -8   4  -5 157.248 67.4418  19
  -8   3   7 354.274 107.717   7
  -8   3   7 509.466 130.441  11
  -8   3   6 287.945 111.561   7
  -8   3   6 285.880 124.685  11
  -8   3   5 1118.03 187.060   7
  -8   3   5 1382.99 249.462  11
  -8   3   5 1099.95 178.999   8
  -8   3   4 242.058 103.870   7
  -8   3   4 337.846 150.814  11
  -8   3   4 270.859 124.464   8
  -8   3   3 324.260 128.076   7
  -8   3   3 568.690 174.883  11
  -8   3   3 507.128 145.252   8
  -8   3   2 9165.88 666.356  11
  -8   3   2 8840.24 522.537   8
  -8   3   2 8053.33 502.004   7
  -8   3   1 2513.75 345.065  11
  -8   3   1 2471.41 273.951  19
  -8   3   1 2402.72 286.821   8
  -8   3   1 2220.46 269.503   7
  -8   3   0 367.099 119.602   7
  -8   3   0 523.503 176.356  11
  -8   3   0 501.325 136.479  19
  -8   3   0 366.884 135.987   8
  -8   3  -1 230.592 104.302   7
  -8   3  -1 279.088 131.611  11
  -8   3  -1 359.260 113.377  19
  -8   3  -1 227.439 121.497   8
  -8   3  -2 44.7457 91.3768   7
  -8   3  -2-105.834 128.960  11
  -8   3  -2 20.4838 58.1871  19
  -8   3  -2 110.928 97.9639   8
  -8   3  -3-3.50418 95.5945   7
  -8   3  -3 18.4961 54.3228  19
  -8   3  -3-106.288 99.0594   8
  -8   3  -4 1559.44 206.654  19
  -8   3  -4 1301.63 192.605   7
  -8   3  -5-20.2134 49.9372   7
  -8   2   8 240.030 103.805   7
  -8   2   7 596.224 143.736   7
  -8   2   7 407.023 110.815  11
  -8   2   6 332.909 121.064   7
  -8   2   6 590.637 169.434  11
  -8   2   5 78.1418 86.7823   7
  -8   2   5 128.190 116.792  11
  -8   2   5 72.0835 97.0756   8
  -8   2   4-35.1401 94.9872   7
  -8   2   4-35.7724 116.727  11
  -8   2   4 122.062 116.240   8
  -8   2   3 391.105 133.638   7
  -8   2   3 441.158 169.518  11
  -8   2   3 339.979 143.029   8
  -8   2   2-82.3719 97.7061   7
  -8   2   2 153.769 149.410  11
  -8   2   2 35.5709 114.444   8
  -8   2   1 143.999 100.387   7
  -8   2   1 196.471 127.505  11
  -8   2   1 168.632 125.138   8
  -8   2   0 5074.77 499.331  11
  -8   2   0 5179.97 375.783  19
  -8   2   0 5682.77 431.893   8
  -8   2   0 4759.05 398.568   7
  -8   2  -1 2478.30 339.725  11
  -8   2  -1 2498.14 269.729  19
  -8   2  -1 3309.72 318.045   8
  -8   2  -1 2815.60 318.590   7
  -8   2  -2 663.831 161.805   7
  -8   2  -2 516.534 151.929  11
  -8   2  -2 663.711 154.771  19
  -8   2  -2 903.825 166.825   8
  -8   2  -3 13.3605 94.2680   7
  -8   2  -3 201.250 91.0063  11
  -8   2  -3 240.729 96.6045  19
  -8   2  -3 201.941 93.4914   8
  -8   2  -4 1053.20 161.424  19
  -8   2  -4 1483.64 200.638   7
  -8   2  -5 157.804 64.0828   7
  -8   1   8 4.90588 78.6837   7
  -8   1   7 789.737 171.148   7
  -8   1   6 862.321 175.896   7
  -8   1   6 948.755 177.457  11
  -8   1   5 481.848 153.251   7
  -8   1   5 614.870 170.514  11
  -8   1   5 380.736 140.292   8
  -8   1   4 499.142 139.045   7
  -8   1   4 826.384 217.972  11
  -8   1   4 638.504 164.511   8
  -8   1   3 28.3306 71.5416   7
  -8   1   3 84.2398 105.660  11
  -8   1   3 89.3294 124.641   8
  -8   1   2 413.151 124.609   7
  -8   1   2 461.472 179.539  11
  -8   1   2 482.145 141.415   8
   8  -1  -1 4639.32 346.681   4
  -8   1   1 4273.16 467.844  11
  -8   1   1 4289.62 371.635   8
  -8   1   1 4377.18 380.143   7
   8  -1   0 1668.06 218.164   4
  -8   1   0 1465.28 278.292  11
  -8   1   0 2050.04 268.862   8
  -8   1   0 1699.28 248.709   7
  -8   1  -1 3531.47 397.233  11
  -8   1  -1 4118.67 346.481   8
  -8   1  -1 4061.81 365.740   7
  -8   1  -2 724.974 176.081   7
  -8   1  -2 639.760 169.510  11
  -8   1  -2 743.897 144.459   8
  -8   1  -3 877.800 164.473   7
  -8   1  -3 562.483 133.397  11
  -8   1  -4-52.7561 66.7959   7
  -8   0   8 563.874 131.125   7
   8   0  -7 2842.38 271.978  12
  -8   0   7 2558.04 275.077   7
  -8   0   6 51.1425 93.7847   7
  -8   0   6 59.4242 69.1305  11
  -8   0   5 868.618 183.698   7
  -8   0   5 1051.58 207.347  11
  -8   0   5 796.036 177.478   8
  -8   0   4-58.0285 98.7197   7
  -8   0   4-211.987 118.663  11
  -8   0   4 36.2321 111.679   8
  -8   0   3 730.579 162.253   7
  -8   0   3 695.332 213.439  11
  -8   0   3 901.320 200.250   8
  -8   0   2 36.9254 80.7928   7
  -8   0   2-72.6949 134.617  11
   8   0  -2 86.4953 89.0130   4
  -8   0   2 59.8448 114.231   8
  -8   0   1-1.93932 80.9749   7
  -8   0   1-147.069 134.113  11
   8   0  -1 240.822 121.021   4
  -8   0   1 64.4674 129.454   8
  -8   0   0 549.160 141.954   7
  -8   0   0 717.597 207.669  11
   8   0   0 699.455 140.658   4
  -8   0   0 796.449 180.104   8
   8   0   1 3512.31 300.189   4
  -8   0  -1 2481.61 335.050  11
  -8   0  -1 3471.63 298.565   8
  -8   0  -1 3023.95 304.792   7
  -8   0  -2 154.737 104.742   7
  -8   0  -2 315.846 115.425  11
  -8   0  -3 910.750 146.274  11
  -8   0  -3 1693.49 212.512   7
  -8   0  -4 66.1237 49.1676   7
  -8  -1   8 3276.31 285.826   7
  -8  -1   7 105.390 91.2314   7
   8   1  -7 340.322 118.557  12
  -8  -1   6 475.366 129.403   7
  -8  -1   6 371.987 110.893  11
  -8  -1   5 2112.52 270.998  11
  -8  -1   5 2103.68 252.835   7
  -8  -1   4 995.544 178.105   7
  -8  -1   4 1050.83 209.456  11
  -8  -1   4 952.335 216.002   8
  -8  -1   3 0.89505 81.0386   7
  -8  -1   3 20.4056 106.330  11
   8   1  -3 175.771 96.5953   4
  -8  -1   3 5.76818 113.770   8
  -8  -1   2 151.322 93.1649   7
  -8  -1   2 313.813 142.630  11
   8   1  -2 234.161 115.677   4
  -8  -1   2 423.036 166.707   8
  -8  -1   1 35.7028 75.4754   7
  -8  -1   1-56.3624 129.026  11
   8   1  -1 51.9830 91.3371   4
  -8  -1   1 6.12631 116.529   8
  -8  -1   0 291.796 104.970   7
  -8  -1   0 257.361 146.555  11
   8   1   0 342.351 117.222   4
  -8  -1   0 381.474 129.784   8
  -8  -1  -1 882.920 154.234   7
  -8  -1  -1 688.182 179.681  11
   8   1   1 1007.59 167.447   4
   8   1   2 2598.03 246.529   4
  -8  -1  -2 2496.62 240.884   7
  -8  -1  -3 273.688 81.5526   7
   8   1   3 303.139 86.3623   4
  -8  -2   8 76.3642 87.4615   7
   8   2  -8 19.2283 74.5426  12
  -8  -2   7 258.085 100.558   7
   8   2  -7 321.112 114.243  12
  -8  -2   6 2749.08 266.557   7
  -8  -2   5-40.6343 87.0311   7
  -8  -2   5 37.7584 89.2171  11
  -8  -2   4-58.1527 80.5790   7
  -8  -2   4 35.3289 80.7561  11
   8   2  -4 55.2764 78.9592   4
  -8  -2   3 74.9165 66.8241   7
  -8  -2   3 108.673 112.577  11
   8   2  -3 68.4351 74.6858   4
  -8  -2   2 991.682 165.871   7
  -8  -2   2 780.555 197.563  11
   8   2  -2 1183.30 170.571   4
  -8  -2   1 450.370 118.086   7
  -8  -2   1 187.205 131.827  11
   8   2  -1 356.249 112.938   4
  -8  -2   0-76.4178 66.7627   7
  -8  -2   0-64.0091 97.2498  11
  -8  -2  -1-76.2540 67.5648   7
  -8  -2  -1-92.2819 90.8354  11
   8   2   1 135.723 78.6915   4
  -8  -2  -2 48.5083 72.5644  11
   8   2   2 80.0989 66.7062   4
   8   3  -7 923.205 154.951  12
  -8  -3   6-57.9748 76.8318   7
  -8  -3   5-33.2849 69.6424   7
  -8  -3   5 49.8151 56.4682  11
   8   3  -5-122.034 94.6879   4
  -8  -3   4 1713.41 228.030  11
  -8  -3   4 2314.59 229.137   7
   8   3  -4 2493.11 232.079   4
  -8  -3   3 269.584 91.7629   7
  -8  -3   3 227.326 103.995  11
   8   3  -3 341.527 120.168   4
  -8  -3   2 984.080 144.630   7
  -8  -3   2 991.853 197.079  11
   8   3  -2 1257.08 179.816   4
  -8  -3   1 447.072 94.6248   7
  -8  -3   1 441.662 138.711  11
   8   3  -1 706.877 138.359   4
  -8  -3   0 470.835 140.870  11
   8   3   0 955.902 143.889   4
  -8  -3  -1 16.7104 57.5529  11
   8   3   1 13.5789 67.4757   4
   8   4  -6 338.133 102.077  12
   8   4  -5 133.010 72.6952   4
   8   4  -4 298.452 102.779   4
  -8  -4   3 13.2402 60.5470  11
   8   4  -3 185.537 84.2096   4
  -8  -4   2-70.4602 68.6877  11
   8   4  -2 218.107 102.408   4
  -8  -4   1 42.5875 78.2220  11
   8   4  -1 170.792 82.4702   4
  -9   4   3 110.278 82.6941  11
  -9   4   2 1777.03 239.182  11
  -9   4   2 1202.10 176.024   8
  -9   4   1 1449.23 224.257  11
  -9   4   1 1281.04 179.256   8
  -9   4   0 319.445 109.355   8
  -9   3   3 1070.81 199.336  11
  -9   3   3 630.922 134.137   8
  -9   3   2 436.169 129.585  11
  -9   3   2 587.378 134.381   8
  -9   3   1 742.860 141.128   7
  -9   3   1 691.442 162.181  11
  -9   3   1 901.727 165.832   8
  -9   3   0 325.677 113.632   8
  -9   2   4 172.128 103.142  11
  -9   2   3 38.1606 56.8281   7
  -9   2   3-134.627 108.041  11
  -9   2   3-58.8699 90.2076   8
  -9   2   2 513.366 113.609   7
  -9   2   2 381.339 123.520   8
  -9   2   1 285.080 99.1298   7
  -9   2   1 304.333 117.701  11
  -9   2   1 302.087 115.764   8
  -9   2   0 600.554 122.432   7
  -9   2   0 622.450 148.039  11
  -9   2   0 466.323 128.032   8
  -9   1   4 233.959 94.3349   7
  -9   1   4 128.046 83.6851  11
  -9   1   3 888.056 151.561   7
  -9   1   3 947.541 163.029  11
  -9   1   3 942.657 167.088   8
  -9   1   2 103.776 76.7846   7
  -9   1   2 40.6648 76.9080  11
  -9   1   2 100.239 101.442   8
  -9   1   1 231.695 91.7044   7
  -9   1   1 127.831 90.6626  11
  -9   1   1 273.061 109.729   8
  -9   1   0 179.701 74.4629   7
  -9   0   4 575.829 124.870   7
  -9   0   3 645.657 126.080   7
  -9   0   3 740.378 145.502  11
  -9   0   2 101.561 69.9946   7
  -9   0   2-20.1834 72.0909  11
  -9   0   1 676.946 151.764  11
   0   0   0    0.00    0.00   0

TITL 24002_mla290f2 in P-1
REM P-1 (#2 in standard setting)
CELL 1.54184   7.547859  11.096086  12.029187 103.9205  97.7928  98.6612
ZERR    4.00   0.000408   0.000754   0.000810   0.0058   0.0051   0.0051
LATT  1
SFAC C H O S
UNIT 28.00 40.00 4.00 12.00
TREF
HKLF 4
END
;
_shelx_hkl_checksum              79364
loop_
_space_group_symop_operation_xyz
'x, y, z'
'-x, -y, -z'
loop_
_atom_site_label
_atom_site_type_symbol
_atom_site_fract_x
_atom_site_fract_y
_atom_site_fract_z
_atom_site_U_iso_or_equiv
_atom_site_adp_type
_atom_site_occupancy
_atom_site_site_symmetry_order
_atom_site_calc_flag
_atom_site_refinement_flags_posn
_atom_site_refinement_flags_adp
_atom_site_refinement_flags_occupancy
_atom_site_disorder_assembly
_atom_site_disorder_group
C1 C -0.0040(5) 0.7970(3) 1.4440(3) 0.0794(9) Uani 1 1 d . . . . .
C2 C -0.3146(4) 0.8433(3) 1.3493(3) 0.0747(8) Uani 1 1 d . . . . .
H2A H -0.3049 0.9283 1.4004 0.090 Uiso 1 1 calc R U . . .
C3 C -0.5091(5) 0.8001(5) 1.2858(4) 0.0922(11) Uani 1 1 d . . . . .
H3A H -0.5242 0.7155 1.2348 0.111 Uiso 1 1 calc R U . . .
H3B H -0.5903 0.7974 1.3414 0.111 Uiso 1 1 calc R U . . .
C4 C -0.5566(5) 0.8896(5) 1.2151(4) 0.1051(13) Uani 1 1 d . . . . .
H4A H -0.6766 0.8555 1.1677 0.126 Uiso 1 1 calc R U . . .
H4B H -0.5618 0.9700 1.2675 0.126 Uiso 1 1 calc R U . . .
C5 C -0.4226(5) 0.9114(5) 1.1377(4) 0.0934(11) Uani 1 1 d . . . . .
H5A H -0.4506 0.9785 1.1034 0.112 Uiso 1 1 calc R U . . .
H5B H -0.4373 0.8352 1.0747 0.112 Uiso 1 1 calc R U . . .
C6 C -0.2255(5) 0.9465(4) 1.1988(3) 0.0825(9) Uani 1 1 d . . . . .
H6 H -0.2065 1.0304 1.2535 0.099 Uiso 1 1 calc R U . . .
C7 C -0.1855(4) 0.8533(3) 1.2667(3) 0.0711(7) Uani 1 1 d . . . . .
H7 H -0.2043 0.7702 1.2106 0.085 Uiso 1 1 calc R U . . .
C8 C 0.1310(5) 0.5761(4) 0.8838(3) 0.0809(9) Uani 1 1 d . . . . .
C9 C -0.120(3) 0.6976(18) 0.827(2) 0.074(6) Uani 0.536(8) 1 d D U P A 1
H9 H -0.0589 0.7330 0.7715 0.089 Uiso 0.536(8) 1 calc R U P A 1
C10 C -0.2783(9) 0.7622(6) 0.8442(7) 0.0666(16) Uani 0.536(8) 1 d D U P A 1
H10 H -0.3430 0.7262 0.8975 0.080 Uiso 0.536(8) 1 calc R U P A 1
C11 C -0.412(3) 0.7399(17) 0.7318(18) 0.077(4) Uani 0.536(8) 1 d D U P A 1
H11A H -0.5194 0.7734 0.7499 0.092 Uiso 0.536(8) 1 calc R U P A 1
H11B H -0.3570 0.7866 0.6827 0.092 Uiso 0.536(8) 1 calc R U P A 1
C12 C -0.470(2) 0.6028(13) 0.6649(13) 0.098(7) Uani 0.536(8) 1 d D U P A 1
H12A H -0.5514 0.5606 0.7055 0.118 Uiso 0.536(8) 1 calc R U P A 1
H12B H -0.5383 0.5979 0.5890 0.118 Uiso 0.536(8) 1 calc R U P A 1
C13 C -0.3158(13) 0.5330(7) 0.6480(7) 0.082(2) Uani 0.536(8) 1 d D U P A 1
H13A H -0.2474 0.5611 0.5932 0.099 Uiso 0.536(8) 1 calc R U P A 1
H13B H -0.3619 0.4428 0.6184 0.099 Uiso 0.536(8) 1 calc R U P A 1
C14 C -0.197(2) 0.5622(19) 0.7657(14) 0.073(4) Uani 0.536(8) 1 d D U P A 1
H14 H -0.2709 0.5286 0.8163 0.087 Uiso 0.536(8) 1 calc R U P A 1
O2 O -0.214(2) 0.8923(11) 0.8985(11) 0.070(3) Uani 0.536(8) 1 d D . P A 1
H2 H -0.1028 0.9076 0.9095 0.105 Uiso 0.536(8) 1 calc R U P A 1
S4 S 0.0492(4) 0.7106(2) 0.9455(3) 0.0814(11) Uani 0.536(8) 1 d . U P A 1
S6 S 0.0025(7) 0.4788(4) 0.7594(4) 0.0944(11) Uani 0.536(8) 1 d . U P A 1
C9A C -0.147(4) 0.685(2) 0.827(2) 0.063(5) Uani 0.464(8) 1 d D U P A 2
H9A H -0.2069 0.6700 0.8904 0.075 Uiso 0.464(8) 1 calc R U P A 2
C10A C -0.2288(10) 0.7876(6) 0.7896(7) 0.0634(18) Uani 0.464(8) 1 d D U P A 2
H10A H -0.1786 0.8003 0.7214 0.076 Uiso 0.464(8) 1 calc R U P A 2
C11A C -0.431(3) 0.738(2) 0.749(2) 0.085(7) Uani 0.464(8) 1 d D U P A 2
H11C H -0.4868 0.7344 0.8171 0.102 Uiso 0.464(8) 1 calc R U P A 2
H11D H -0.4835 0.7971 0.7137 0.102 Uiso 0.464(8) 1 calc R U P A 2
C12A C -0.480(2) 0.6088(17) 0.6642(14) 0.083(6) Uani 0.464(8) 1 d D U P A 2
H12C H -0.4509 0.6158 0.5895 0.099 Uiso 0.464(8) 1 calc R U P A 2
H12D H -0.6099 0.5782 0.6534 0.099 Uiso 0.464(8) 1 calc R U P A 2
C13A C -0.3800(12) 0.5141(8) 0.7038(9) 0.079(2) Uani 0.464(8) 1 d D U P A 2
H13C H -0.4041 0.4370 0.6410 0.095 Uiso 0.464(8) 1 calc R U P A 2
H13D H -0.4293 0.4937 0.7689 0.095 Uiso 0.464(8) 1 calc R U P A 2
C14A C -0.175(2) 0.558(2) 0.7407(18) 0.071(5) Uani 0.464(8) 1 d D U P A 2
H14A H -0.1259 0.5705 0.6720 0.085 Uiso 0.464(8) 1 calc R U P A 2
S4A S 0.0986(4) 0.7322(2) 0.8902(4) 0.0776(10) Uani 0.464(8) 1 d . U P A 2
S6A S -0.0502(6) 0.4617(4) 0.7987(5) 0.0887(10) Uani 0.464(8) 1 d . U P A 2
O2A O -0.200(3) 0.9082(14) 0.8710(13) 0.078(4) Uani 0.464(8) 1 d D . P A 2
H2A1 H -0.1383 0.9068 0.9320 0.117 Uiso 0.464(8) 1 calc R U P A 2
O1 O -0.1041(4) 0.9511(3) 1.1194(3) 0.1047(9) Uani 1 1 d . . . . .
H1 H -0.1257 1.0027 1.0832 0.157 Uiso 1 1 calc R U . . .
S1 S -0.23373(13) 0.74669(11) 1.43871(9) 0.0916(3) Uani 1 1 d . . . . .
S2 S 0.15370(16) 0.76053(12) 1.53104(9) 0.1047(4) Uani 1 1 d . . . . .
S3 S 0.04382(11) 0.88454(9) 1.34787(8) 0.0813(3) Uani 1 1 d . . . . .
S5 S 0.31694(15) 0.54281(13) 0.94740(11) 0.1096(4) Uani 1 1 d . . . . .
loop_
_atom_site_aniso_label
_atom_site_aniso_U_11
_atom_site_aniso_U_22
_atom_site_aniso_U_33
_atom_site_aniso_U_23
_atom_site_aniso_U_13
_atom_site_aniso_U_12
C1 0.080(2) 0.085(2) 0.0715(18) 0.0149(16) 0.0015(16) 0.0302(17)
C2 0.0665(17) 0.091(2) 0.0783(19) 0.0348(17) 0.0166(15) 0.0292(15)
C3 0.0606(18) 0.127(3) 0.107(3) 0.058(2) 0.0172(18) 0.0284(19)
C4 0.074(2) 0.154(4) 0.117(3) 0.070(3) 0.019(2) 0.053(2)
C5 0.080(2) 0.129(3) 0.093(2) 0.059(2) 0.0149(19) 0.043(2)
C6 0.080(2) 0.100(2) 0.084(2) 0.0441(19) 0.0217(18) 0.0300(18)
C7 0.0622(16) 0.085(2) 0.0723(17) 0.0285(15) 0.0105(14) 0.0231(14)
C8 0.0736(19) 0.096(2) 0.083(2) 0.0307(18) 0.0142(16) 0.0338(17)
C9 0.062(8) 0.067(7) 0.084(9) 0.007(6) -0.003(5) 0.015(6)
C10 0.062(3) 0.072(4) 0.064(4) 0.018(3) 0.006(3) 0.015(3)
C11 0.072(7) 0.078(8) 0.083(7) 0.022(5) -0.001(5) 0.031(5)
C12 0.083(9) 0.084(9) 0.091(9) -0.010(6) -0.041(6) 0.008(7)
C13 0.094(5) 0.074(4) 0.069(4) 0.008(3) -0.010(4) 0.026(4)
C14 0.073(6) 0.082(7) 0.066(7) 0.015(6) 0.011(5) 0.034(5)
O2 0.067(3) 0.063(4) 0.077(6) 0.018(3) -0.002(4) 0.017(3)
S4 0.0691(12) 0.0830(12) 0.0835(17) 0.0137(10) -0.0113(12) 0.0243(9)
S6 0.103(2) 0.0852(16) 0.094(2) 0.0123(13) -0.0011(14) 0.0473(16)
C9A 0.055(6) 0.067(8) 0.065(8) 0.025(6) -0.005(5) 0.009(5)
C10A 0.061(4) 0.065(4) 0.059(4) 0.015(3) -0.001(3) 0.011(3)
C11A 0.066(8) 0.093(11) 0.088(9) 0.025(7) -0.015(7) 0.015(7)
C12A 0.072(9) 0.109(13) 0.082(9) 0.046(8) 0.016(7) 0.028(8)
C13A 0.077(5) 0.073(4) 0.075(5) 0.010(4) -0.001(4) 0.006(4)
C14A 0.065(6) 0.074(6) 0.060(7) -0.007(5) 0.007(5) 0.018(5)
S4A 0.0619(11) 0.0822(12) 0.084(2) 0.0213(11) -0.0044(11) 0.0149(9)
S6A 0.0877(19) 0.0773(15) 0.102(2) 0.0177(15) 0.0126(14) 0.0311(13)
O2A 0.094(7) 0.068(5) 0.070(6) 0.021(4) -0.009(5) 0.022(4)
O1 0.0958(18) 0.141(2) 0.1023(19) 0.0658(18) 0.0369(16) 0.0285(17)
S1 0.0805(6) 0.1183(7) 0.0944(6) 0.0583(6) 0.0138(5) 0.0284(5)
S2 0.1013(7) 0.1269(8) 0.0874(6) 0.0290(6) -0.0112(5) 0.0506(6)
S3 0.0604(4) 0.1034(6) 0.0862(5) 0.0322(5) 0.0113(4) 0.0246(4)
S5 0.0851(6) 0.1370(9) 0.1207(8) 0.0467(7) 0.0057(6) 0.0552(6)
loop_
_atom_type_symbol
_atom_type_description
_atom_type_scat_dispersion_real
_atom_type_scat_dispersion_imag
_atom_type_scat_source
C C 0.0181 0.0091 'International Tables Vol C Tables 4.2.6.8 and 6.1.1.4'
H H 0.0000 0.0000 'International Tables Vol C Tables 4.2.6.8 and 6.1.1.4'
O O 0.0492 0.0322 'International Tables Vol C Tables 4.2.6.8 and 6.1.1.4'
S S 0.3331 0.5567 'International Tables Vol C Tables 4.2.6.8 and 6.1.1.4'
loop_
_geom_angle_atom_site_label_1
_geom_angle_atom_site_label_2
_geom_angle_atom_site_label_3
_geom_angle
_geom_angle_site_symmetry_1
_geom_angle_site_symmetry_3
_geom_angle_publ_flag
S2 C1 S3 123.3(2) . . ?
S2 C1 S1 122.4(2) . . ?
S3 C1 S1 114.24(19) . . ?
C7 C2 C3 111.3(3) . . ?
C7 C2 S1 107.1(2) . . ?
C3 C2 S1 116.0(3) . . ?
C7 C2 H2A 107.4 . . ?
C3 C2 H2A 107.4 . . ?
S1 C2 H2A 107.4 . . ?
C4 C3 C2 109.9(3) . . ?
C4 C3 H3A 109.7 . . ?
C2 C3 H3A 109.7 . . ?
C4 C3 H3B 109.7 . . ?
C2 C3 H3B 109.7 . . ?
H3A C3 H3B 108.2 . . ?
C5 C4 C3 112.8(3) . . ?
C5 C4 H4A 109.0 . . ?
C3 C4 H4A 109.0 . . ?
C5 C4 H4B 109.0 . . ?
C3 C4 H4B 109.0 . . ?
H4A C4 H4B 107.8 . . ?
C4 C5 C6 114.3(3) . . ?
C4 C5 H5A 108.7 . . ?
C6 C5 H5A 108.7 . . ?
C4 C5 H5B 108.7 . . ?
C6 C5 H5B 108.7 . . ?
H5A C5 H5B 107.6 . . ?
O1 C6 C7 110.0(3) . . ?
O1 C6 C5 111.8(3) . . ?
C7 C6 C5 109.8(3) . . ?
O1 C6 H6 108.4 . . ?
C7 C6 H6 108.4 . . ?
C5 C6 H6 108.4 . . ?
C2 C7 C6 111.5(3) . . ?
C2 C7 S3 108.0(2) . . ?
C6 C7 S3 115.2(3) . . ?
C2 C7 H7 107.2 . . ?
C6 C7 H7 107.2 . . ?
S3 C7 H7 107.2 . . ?
S5 C8 S6 122.3(2) . . ?
S5 C8 S6A 123.3(3) . . ?
S5 C8 S4 121.4(2) . . ?
S6 C8 S4 116.3(2) . . ?
S5 C8 S4A 123.6(2) . . ?
S6A C8 S4A 113.1(2) . . ?
C14 C9 C10 106.7(17) . . ?
C14 C9 S4 110.8(12) . . ?
C10 C9 S4 119.6(14) . . ?
C14 C9 H9 106.3 . . ?
C10 C9 H9 106.3 . . ?
S4 C9 H9 106.3 . . ?
O2 C10 C9 109.6(12) . . ?
O2 C10 C11 112.1(10) . . ?
C9 C10 C11 112.4(13) . . ?
O2 C10 H10 107.5 . . ?
C9 C10 H10 107.5 . . ?
C11 C10 H10 107.5 . . ?
C12 C11 C10 113.9(14) . . ?
C12 C11 H11A 108.8 . . ?
C10 C11 H11A 108.8 . . ?
C12 C11 H11B 108.8 . . ?
C10 C11 H11B 108.8 . . ?
H11A C11 H11B 107.7 . . ?
C13 C12 C11 114.5(12) . . ?
C13 C12 H12A 108.6 . . ?
C11 C12 H12A 108.6 . . ?
C13 C12 H12B 108.6 . . ?
C11 C12 H12B 108.6 . . ?
H12A C12 H12B 107.6 . . ?
C12 C13 C14 106.4(11) . . ?
C12 C13 H13A 110.5 . . ?
C14 C13 H13A 110.5 . . ?
C12 C13 H13B 110.5 . . ?
C14 C13 H13B 110.5 . . ?
H13A C13 H13B 108.6 . . ?
C9 C14 C13 117.8(17) . . ?
C9 C14 S6 106.2(11) . . ?
C13 C14 S6 111.5(11) . . ?
C9 C14 H14 106.9 . . ?
C13 C14 H14 106.9 . . ?
S6 C14 H14 106.9 . . ?
C10 O2 H2 109.5 . . ?
C8 S4 C9 96.3(5) . . ?
C8 S6 C14 95.3(5) . . ?
C10A C9A C14A 118.6(18) . . ?
C10A C9A S4A 114.3(16) . . ?
C14A C9A S4A 107.5(13) . . ?
C10A C9A H9A 105.0 . . ?
C14A C9A H9A 105.0 . . ?
S4A C9A H9A 105.0 . . ?
O2A C10A C9A 118.2(12) . . ?
O2A C10A C11A 109.3(14) . . ?
C9A C10A C11A 107.6(16) . . ?
O2A C10A H10A 107.1 . . ?
C9A C10A H10A 107.1 . . ?
C11A C10A H10A 107.1 . . ?
C12A C11A C10A 114.5(18) . . ?
C12A C11A H11C 108.6 . . ?
C10A C11A H11C 108.6 . . ?
C12A C11A H11D 108.6 . . ?
C10A C11A H11D 108.6 . . ?
H11C C11A H11D 107.6 . . ?
C11A C12A C13A 112.7(15) . . ?
C11A C12A H12C 109.1 . . ?
C13A C12A H12C 109.1 . . ?
C11A C12A H12D 109.1 . . ?
C13A C12A H12D 109.1 . . ?
H12C C12A H12D 107.8 . . ?
C12A C13A C14A 115.0(14) . . ?
C12A C13A H13C 108.5 . . ?
C14A C13A H13C 108.5 . . ?
C12A C13A H13D 108.5 . . ?
C14A C13A H13D 108.5 . . ?
H13C C13A H13D 107.5 . . ?
C9A C14A C13A 105.8(18) . . ?
C9A C14A S6A 109.8(13) . . ?
C13A C14A S6A 118.6(15) . . ?
C9A C14A H14A 107.4 . . ?
C13A C14A H14A 107.4 . . ?
S6A C14A H14A 107.4 . . ?
C8 S4A C9A 94.9(6) . . ?
C14A S6A C8 99.2(6) . . ?
C10A O2A H2A1 109.5 . . ?
C6 O1 H1 109.5 . . ?
C1 S1 C2 96.83(17) . . ?
C1 S3 C7 96.44(16) . . ?
loop_
_geom_bond_atom_site_label_1
_geom_bond_atom_site_label_2
_geom_bond_distance
_geom_bond_site_symmetry_2
_geom_bond_publ_flag
C1 S2 1.640(3) . ?
C1 S3 1.720(4) . ?
C1 S1 1.727(4) . ?
C2 C7 1.495(5) . ?
C2 C3 1.509(5) . ?
C2 S1 1.803(3) . ?
C2 H2A 0.9800 . ?
C3 C4 1.506(6) . ?
C3 H3A 0.9700 . ?
C3 H3B 0.9700 . ?
C4 C5 1.497(6) . ?
C4 H4A 0.9700 . ?
C4 H4B 0.9700 . ?
C5 C6 1.516(5) . ?
C5 H5A 0.9700 . ?
C5 H5B 0.9700 . ?
C6 O1 1.414(4) . ?
C6 C7 1.503(5) . ?
C6 H6 0.9800 . ?
C7 S3 1.808(3) . ?
C7 H7 0.9800 . ?
C8 S5 1.641(3) . ?
C8 S6 1.691(5) . ?
C8 S6A 1.733(6) . ?
C8 S4 1.740(4) . ?
C8 S4A 1.770(4) . ?
C9 C14 1.492(16) . ?
C9 C10 1.498(16) . ?
C9 S4 1.74(2) . ?
C9 H9 0.9800 . ?
C10 O2 1.412(12) . ?
C10 C11 1.517(16) . ?
C10 H10 0.9800 . ?
C11 C12 1.506(13) . ?
C11 H11A 0.9700 . ?
C11 H11B 0.9700 . ?
C12 C13 1.503(14) . ?
C12 H12A 0.9700 . ?
C12 H12B 0.9700 . ?
C13 C14 1.504(14) . ?
C13 H13A 0.9700 . ?
C13 H13B 0.9700 . ?
C14 S6 1.881(19) . ?
C14 H14 0.9800 . ?
O2 H2 0.8200 . ?
C9A C10A 1.500(15) . ?
C9A C14A 1.503(16) . ?
C9A S4A 1.85(3) . ?
C9A H9A 0.9800 . ?
C10A O2A 1.422(15) . ?
C10A C11A 1.514(17) . ?
C10A H10A 0.9800 . ?
C11A C12A 1.506(16) . ?
C11A H11C 0.9700 . ?
C11A H11D 0.9700 . ?
C12A C13A 1.511(14) . ?
C12A H12C 0.9700 . ?
C12A H12D 0.9700 . ?
C13A C14A 1.522(16) . ?
C13A H13C 0.9700 . ?
C13A H13D 0.9700 . ?
C14A S6A 1.73(3) . ?
C14A H14A 0.9800 . ?
O2A H2A1 0.8200 . ?
O1 H1 0.8200 . ?
loop_
_geom_torsion_atom_site_label_1
_geom_torsion_atom_site_label_2
_geom_torsion_atom_site_label_3
_geom_torsion_atom_site_label_4
_geom_torsion
_geom_torsion_site_symmetry_1
_geom_torsion_site_symmetry_2
_geom_torsion_site_symmetry_3
_geom_torsion_site_symmetry_4
_geom_torsion_publ_flag
C7 C2 C3 C4 -57.2(4) . . . . ?
S1 C2 C3 C4 -180.0(3) . . . . ?
C2 C3 C4 C5 52.1(6) . . . . ?
C3 C4 C5 C6 -50.3(6) . . . . ?
C4 C5 C6 O1 172.9(4) . . . . ?
C4 C5 C6 C7 50.6(5) . . . . ?
C3 C2 C7 C6 60.0(4) . . . . ?
S1 C2 C7 C6 -172.2(3) . . . . ?
C3 C2 C7 S3 -172.4(3) . . . . ?
S1 C2 C7 S3 -44.6(3) . . . . ?
O1 C6 C7 C2 -178.4(3) . . . . ?
C5 C6 C7 C2 -55.0(4) . . . . ?
O1 C6 C7 S3 58.0(4) . . . . ?
C5 C6 C7 S3 -178.5(3) . . . . ?
C14 C9 C10 O2 -178.2(14) . . . . ?
S4 C9 C10 O2 55(2) . . . . ?
C14 C9 C10 C11 -53(2) . . . . ?
S4 C9 C10 C11 -179.5(15) . . . . ?
O2 C10 C11 C12 174.4(15) . . . . ?
C9 C10 C11 C12 50(2) . . . . ?
C10 C11 C12 C13 -49(2) . . . . ?
C11 C12 C13 C14 49(2) . . . . ?
C10 C9 C14 C13 60(2) . . . . ?
S4 C9 C14 C13 -167.8(13) . . . . ?
C10 C9 C14 S6 -173.8(12) . . . . ?
S4 C9 C14 S6 -42.0(18) . . . . ?
C12 C13 C14 C9 -58(2) . . . . ?
C12 C13 C14 S6 179.1(11) . . . . ?
S5 C8 S4 C9 171.7(9) . . . . ?
S6 C8 S4 C9 -11.5(9) . . . . ?
S6A C8 S4 C9 -35.7(9) . . . . ?
S4A C8 S4 C9 68.1(9) . . . . ?
C14 C9 S4 C8 33.6(16) . . . . ?
C10 C9 S4 C8 158.4(15) . . . . ?
S5 C8 S6 C14 168.1(7) . . . . ?
S6A C8 S6 C14 67.9(8) . . . . ?
S4 C8 S6 C14 -8.7(7) . . . . ?
S4A C8 S6 C14 -38.5(7) . . . . ?
C9 C14 S6 C8 29.9(15) . . . . ?
C13 C14 S6 C8 159.5(12) . . . . ?
C14A C9A C10A O2A -179.5(18) . . . . ?
S4A C9A C10A O2A -51(2) . . . . ?
C14A C9A C10A C11A 56(3) . . . . ?
S4A C9A C10A C11A -175.3(15) . . . . ?
O2A C10A C11A C12A -178.9(17) . . . . ?
C9A C10A C11A C12A -49(2) . . . . ?
C10A C11A C12A C13A 49(3) . . . . ?
C11A C12A C13A C14A -51(2) . . . . ?
C10A C9A C14A C13A -56(3) . . . . ?
S4A C9A C14A C13A 171.9(14) . . . . ?
C10A C9A C14A S6A 174.4(17) . . . . ?
S4A C9A C14A S6A 42.8(19) . . . . ?
C12A C13A C14A C9A 51(2) . . . . ?
C12A C13A C14A S6A 174.8(11) . . . . ?
S5 C8 S4A C9A -169.4(8) . . . . ?
S6 C8 S4A C9A 37.6(8) . . . . ?
S6A C8 S4A C9A 13.0(8) . . . . ?
S4 C8 S4A C9A -74.4(8) . . . . ?
C10A C9A S4A C8 -167.1(13) . . . . ?
C14A C9A S4A C8 -33.1(16) . . . . ?
C9A C14A S6A C8 -31.4(17) . . . . ?
C13A C14A S6A C8 -153.1(12) . . . . ?
S5 C8 S6A C14A -170.0(8) . . . . ?
S6 C8 S6A C14A -74.8(9) . . . . ?
S4 C8 S6A C14A 38.0(8) . . . . ?
S4A C8 S6A C14A 7.6(8) . . . . ?
S2 C1 S1 C2 170.3(2) . . . . ?
S3 C1 S1 C2 -11.4(2) . . . . ?
C7 C2 S1 C1 34.3(3) . . . . ?
C3 C2 S1 C1 159.2(3) . . . . ?
S2 C1 S3 C7 168.0(2) . . . . ?
S1 C1 S3 C7 -10.3(2) . . . . ?
C2 C7 S3 C1 34.0(3) . . . . ?
C6 C7 S3 C1 159.3(3) . . . . ?
