#------------------------------------------------------------------------------
#$Date: 2021-10-06 19:16:48 +0300 (Wed, 06 Oct 2021) $
#$Revision: 269787 $
#$URL: file:///home/coder/svn-repositories/cod/cif/7/15/82/7158271.cif $
#------------------------------------------------------------------------------
#
# This file is available in the Crystallography Open Database (COD),
# http://www.crystallography.net/
#
# All data on this site have been placed in the public domain by the
# contributors.
#
data_7158271
loop_
_publ_author_name
'Al Isawi, Wisam A.'
'Salome, Austin Z.'
'Ahmed, Basil M.'
'Zeller, Matthias'
'Mezei, Gellert'
_publ_section_title
;
 Selective binding of anions by rigidified nanojars: sulfate <i>vs.</i>
 carbonate.
;
_journal_issue                   35
_journal_name_full               'Organic &amp; biomolecular chemistry'
_journal_page_first              7641
_journal_page_last               7654
_journal_paper_doi               10.1039/d1ob01318a
_journal_volume                  19
_journal_year                    2021
_chemical_formula_sum            'C21 H32 N4 O2'
_chemical_formula_weight         372.50
_space_group_crystal_system      triclinic
_space_group_IT_number           2
_space_group_name_Hall           '-P 1'
_space_group_name_H-M_alt        'P -1'
_atom_sites_solution_hydrogens   geom
_atom_sites_solution_primary     direct
_atom_sites_solution_secondary   difmap
_audit_creation_method           SHELXL-2018/3
_audit_update_record
;
2021-06-18 deposited with the CCDC.	2021-08-18 downloaded from the CCDC.
;
_cell_angle_alpha                87.5026(18)
_cell_angle_beta                 80.0574(19)
_cell_angle_gamma                64.7954(17)
_cell_formula_units_Z            2
_cell_length_a                   8.2970(3)
_cell_length_b                   9.2575(3)
_cell_length_c                   15.0135(5)
_cell_measurement_reflns_used    5939
_cell_measurement_temperature    150(2)
_cell_measurement_theta_max      33.1139
_cell_measurement_theta_min      2.7537
_cell_volume                     1027.14(6)
_computing_cell_refinement       'SAINT V8.40B (Bruker, 2020)'
_computing_data_collection       'Apex3 v2019.11-0 (Bruker, 2020)'
_computing_data_reduction        'SAINT V8.40B (Bruker, 2020)'
_computing_structure_refinement
;  
SHELXL-2018/3 (Sheldrick, 2015, 2018), 
SHELXLE Rev1231(H\"ubschle et al., 2011)
;
_computing_structure_solution    'SHELXS (Sheldrick, 2008)'
_diffrn_ambient_temperature      150(2)
_diffrn_detector_area_resol_mean 7.4074
_diffrn_measured_fraction_theta_full 0.992
_diffrn_measured_fraction_theta_max 0.932
_diffrn_measurement_device_type
;
Bruker AXS D8 Quest diffractometer with PhotonII charge-integrating pixel 
array detector (CPAD)
;
_diffrn_measurement_method       'omega and phi scans'
_diffrn_radiation_monochromator  'Triumph curved graphite crystal'
_diffrn_radiation_type           MoK\a
_diffrn_radiation_wavelength     0.71073
_diffrn_reflns_av_R_equivalents  0.0727
_diffrn_reflns_av_unetI/netI     0.0929
_diffrn_reflns_Laue_measured_fraction_full 0.992
_diffrn_reflns_Laue_measured_fraction_max 0.932
_diffrn_reflns_limit_h_max       12
_diffrn_reflns_limit_h_min       -12
_diffrn_reflns_limit_k_max       14
_diffrn_reflns_limit_k_min       -13
_diffrn_reflns_limit_l_max       22
_diffrn_reflns_limit_l_min       -22
_diffrn_reflns_number            21263
_diffrn_reflns_point_group_measured_fraction_full 0.992
_diffrn_reflns_point_group_measured_fraction_max 0.932
_diffrn_reflns_theta_full        25.242
_diffrn_reflns_theta_max         33.285
_diffrn_reflns_theta_min         2.433
_diffrn_source                   'fine focus sealed tube X-ray source'
_diffrn_source_current           '30 mA'
_diffrn_source_voltage           '50 kV'
_exptl_absorpt_coefficient_mu    0.079
_exptl_absorpt_correction_T_max  0.7465
_exptl_absorpt_correction_T_min  0.6679
_exptl_absorpt_correction_type   multi-scan
_exptl_absorpt_process_details
;
 SADABS 2016/2: Krause, L., Herbst-Irmer, R., Sheldrick G.M. & Stalke D.,
 J. Appl. Cryst. 48 (2015) 3-10
;
_exptl_crystal_colour            colourless
_exptl_crystal_density_diffrn    1.204
_exptl_crystal_description       plate
_exptl_crystal_F_000             404
_exptl_crystal_recrystallization_method
'Re-crystallisation from solvent: Heptane, Ethyl Acetate'
_exptl_crystal_size_max          0.530
_exptl_crystal_size_mid          0.310
_exptl_crystal_size_min          0.060
_refine_diff_density_max         0.395
_refine_diff_density_min         -0.234
_refine_diff_density_rms         0.048
_refine_ls_extinction_method     none
_refine_ls_goodness_of_fit_ref   1.035
_refine_ls_hydrogen_treatment    constr
_refine_ls_matrix_type           full
_refine_ls_number_parameters     244
_refine_ls_number_reflns         7387
_refine_ls_number_restraints     0
_refine_ls_restrained_S_all      1.035
_refine_ls_R_factor_all          0.1287
_refine_ls_R_factor_gt           0.0491
_refine_ls_shift/su_max          0.000
_refine_ls_shift/su_mean         0.000
_refine_ls_structure_factor_coef Fsqd
_refine_ls_weighting_details
'w=1/[\s^2^(Fo^2^)+(0.0708P)^2^+0.0195P] where P=(Fo^2^+2Fc^2^)/3'
_refine_ls_weighting_scheme      calc
_refine_ls_wR_factor_gt          0.1221
_refine_ls_wR_factor_ref         0.1428
_reflns_Friedel_coverage         0.000
_reflns_number_gt                4424
_reflns_number_total             7387
_reflns_threshold_expression     'I > 2\s(I)'
_cod_data_source_file            d1ob01318a2.cif
_cod_data_source_block           Mezei10_0m
_cod_depositor_comments
'Adding full bibliography for 7158269--7158271.cif.'
_cod_database_code               7158271
_shelx_shelxl_version_number     2018/3
_shelx_space_group_comment
;
The symmetry employed for this shelxl refinement is uniquely defined
by the following loop, which should always be used as a source of
symmetry information in preference to the above space-group names.
They are only intended as comments.
;
_shelx_estimated_absorpt_t_min   0.959
_shelx_estimated_absorpt_t_max   0.995
_shelx_res_file
;
TITL Mezei10_0m in P-1
    Mezei10_0m.res
    created by SHELXL-2018/3 at 18:13:17 on 25-Mar-2021
CELL 0.71073   8.2970    9.2575   15.0135   87.5026   80.0574   64.7954
ZERR    2.00   0.0003    0.0003    0.0005    0.0018    0.0019    0.0017
LATT  1
SFAC C H N O
UNIT 42 64 8 4
LIST 6 ! automatically inserted. Change 6 to 4 for CHECKCIF!!
TEMP -123.150
SIZE 0.06 0.31 0.53

L.S. 4
BOND $H
ACTA
CONF
FMAP 2
PLAN 20

WGHT    0.070800    0.019500
FVAR       1.04533
O1    4    0.715557    0.094725    0.742310    11.00000    0.03140    0.02334 =
         0.02723    0.00015   -0.00182   -0.01092
O2    4   -0.085389    0.682657    0.211608    11.00000    0.03405    0.02706 =
         0.02602    0.00359   -0.00395   -0.01698
N1    3    0.495879    0.370505    0.895930    11.00000    0.03625    0.02681 =
         0.02304   -0.00052   -0.01139   -0.00933
N2    3    0.479820    0.314539    0.816698    11.00000    0.03006    0.02224 =
         0.01841    0.00380   -0.00910   -0.01021
N3    3   -0.284323    1.029286    0.304492    11.00000    0.03409    0.02741 =
         0.02918    0.00364   -0.01189   -0.00741
N4    3   -0.128735    0.892711    0.303207    11.00000    0.02807    0.02632 =
         0.02094    0.00568   -0.00931   -0.01130
C1    1    0.441964    0.526636    0.884018    11.00000    0.03633    0.02408 =
         0.02900   -0.00070   -0.01051   -0.00884
AFIX  43
H1    2    0.437617    0.599311    0.928131    11.00000   -1.20000
AFIX   0
C2    1    0.392365    0.571271    0.798795    11.00000    0.03249    0.02080 =
         0.03326    0.00413   -0.01036   -0.00877
AFIX  43
H2    2    0.349314    0.675415    0.775265    11.00000   -1.20000
AFIX   0
C3    1    0.419565    0.431285    0.756447    11.00000    0.02277    0.02291 =
         0.02290    0.00647   -0.00730   -0.00912
C4    1    0.393746    0.399936    0.663703    11.00000    0.02617    0.02912 =
         0.02026    0.00596   -0.00567   -0.01169
AFIX  23
H4A   2    0.352331    0.313863    0.666485    11.00000   -1.20000
H4B   2    0.511054    0.362837    0.622055    11.00000   -1.20000
AFIX   0
C5    1    0.256894    0.548129    0.626857    11.00000    0.03833    0.02921 =
         0.03073    0.00785   -0.01775   -0.01146
AFIX  23
H5A   2    0.292017    0.636832    0.631541    11.00000   -1.20000
H5B   2    0.137692    0.577829    0.665939    11.00000   -1.20000
AFIX   0
C6    1    0.235793    0.533225    0.529536    11.00000    0.02837    0.03471 =
         0.02454    0.01065   -0.00944   -0.01427
AFIX  23
H6A   2    0.207790    0.440928    0.522596    11.00000   -1.20000
H6B   2    0.350609    0.514210    0.488638    11.00000   -1.20000
AFIX   0
C7    1    0.084218    0.685447    0.503672    11.00000    0.03571    0.03377 =
         0.02650    0.00905   -0.01549   -0.01514
AFIX  23
H7A   2   -0.031472    0.695556    0.540459    11.00000   -1.20000
H7B   2    0.104788    0.777900    0.520127    11.00000   -1.20000
AFIX   0
C8    1    0.064373    0.695682    0.404555    11.00000    0.02750    0.03596 =
         0.02366    0.00865   -0.00736   -0.01195
AFIX  23
H8A   2    0.175595    0.694459    0.367123    11.00000   -1.20000
H8B   2    0.049497    0.601236    0.386218    11.00000   -1.20000
AFIX   0
C9    1   -0.095170    0.844755    0.387743    11.00000    0.03023    0.03232 =
         0.02066    0.00776   -0.01002   -0.01620
C10   1   -0.233346    0.957105    0.446252    11.00000    0.03650    0.03696 =
         0.02206    0.00382   -0.00857   -0.01232
AFIX  43
H10   2   -0.249123    0.959810    0.510451    11.00000   -1.20000
AFIX   0
C11   1   -0.346037    1.066702    0.391885    11.00000    0.03626    0.03249 =
         0.02975   -0.00054   -0.00791   -0.00758
AFIX  43
H11   2   -0.454007    1.157241    0.414788    11.00000   -1.20000
AFIX   0
C12   1    0.541837    0.145390    0.799214    11.00000    0.02712    0.02265 =
         0.02207    0.00287   -0.00750   -0.01064
AFIX  13
H12   2    0.457304    0.129575    0.764774    11.00000   -1.20000
AFIX   0
C13   1    0.554206    0.048541    0.883447    11.00000    0.03678    0.02585 =
         0.02266    0.00529   -0.00776   -0.01242
AFIX  23
H13A  2    0.433823    0.085692    0.922316    11.00000   -1.20000
H13B  2    0.638433    0.061552    0.918297    11.00000   -1.20000
AFIX   0
C14   1    0.622865   -0.127738    0.854734    11.00000    0.04798    0.02388 =
         0.03027    0.00892   -0.01403   -0.01644
AFIX  23
H14A  2    0.642043   -0.194430    0.908695    11.00000   -1.20000
H14B  2    0.531227   -0.142032    0.826325    11.00000   -1.20000
AFIX   0
C15   1    0.799776   -0.181123    0.787879    11.00000    0.04518    0.02312 =
         0.04020    0.00168   -0.01251   -0.00970
AFIX  23
H15A  2    0.896811   -0.185016    0.819470    11.00000   -1.20000
H15B  2    0.834211   -0.289920    0.763578    11.00000   -1.20000
AFIX   0
C16   1    0.781009   -0.067583    0.710797    11.00000    0.04529    0.02495 =
         0.03085   -0.00391   -0.00023   -0.01096
AFIX  23
H16A  2    0.900111   -0.099275    0.671301    11.00000   -1.20000
H16B  2    0.696595   -0.075665    0.674152    11.00000   -1.20000
AFIX   0
C17   1   -0.027994    0.806371    0.218941    11.00000    0.02831    0.02617 =
         0.02219    0.00439   -0.00689   -0.01434
AFIX  13
H17   2    0.103596    0.756136    0.222987    11.00000   -1.20000
AFIX   0
C18   1   -0.055681    0.910933    0.137952    11.00000    0.04529    0.02763 =
         0.02246    0.00560   -0.00894   -0.01823
AFIX  23
H18A  2   -0.013945    0.994883    0.144310    11.00000   -1.20000
H18B  2   -0.185682    0.963558    0.133448    11.00000   -1.20000
AFIX   0
C19   1    0.052348    0.806495    0.052801    11.00000    0.05462    0.03157 =
         0.02193    0.00563   -0.00499   -0.02271
AFIX  23
H19A  2    0.025786    0.871380   -0.001479    11.00000   -1.20000
H19B  2    0.183290    0.766107    0.053904    11.00000   -1.20000
AFIX   0
C20   1    0.003985    0.665912    0.047452    11.00000    0.04355    0.03039 =
         0.02587   -0.00093   -0.00467   -0.01606
AFIX  23
H20A  2   -0.121486    0.705270    0.035927    11.00000   -1.20000
H20B  2    0.085744    0.592182   -0.003348    11.00000   -1.20000
AFIX   0
C21   1    0.021125    0.577921    0.134830    11.00000    0.04119    0.02384 =
         0.03305    0.00028   -0.00331   -0.01460
AFIX  23
H21A  2   -0.018591    0.491668    0.131943    11.00000   -1.20000
H21B  2    0.149594    0.527953    0.142369    11.00000   -1.20000
AFIX   0
HKLF 4




REM  Mezei10_0m in P-1
REM wR2 = 0.1428, GooF = S = 1.035, Restrained GooF = 1.035 for all data
REM R1 = 0.0491 for 4424 Fo > 4sig(Fo) and 0.1287 for all 7387 data
REM 244 parameters refined using 0 restraints

END

WGHT      0.0708      0.0200

REM Highest difference peak  0.395,  deepest hole -0.234,  1-sigma level  0.048
Q1    1   0.3926  0.5007  0.7739  11.00000  0.05    0.40
Q2    1  -0.0159  0.7851  0.4060  11.00000  0.05    0.31
Q3    1  -0.1253  0.9163  0.4150  11.00000  0.05    0.30
Q4    1   0.4965  0.3430  0.8561  11.00000  0.05    0.29
Q5    1   0.2536  0.5360  0.5785  11.00000  0.05    0.28
Q6    1   0.4198  0.4080  0.7123  11.00000  0.05    0.27
Q7    1  -0.0884  0.8429  0.2670  11.00000  0.05    0.27
Q8    1  -0.2778  1.0219  0.4228  11.00000  0.05    0.26
Q9    1  -0.3004  1.0646  0.3538  11.00000  0.05    0.26
Q10   1   0.5019  0.2356  0.8074  11.00000  0.05    0.24
Q11   1   0.0618  0.6935  0.4574  11.00000  0.05    0.24
Q12   1   0.7467  0.0286  0.7257  11.00000  0.05    0.24
Q13   1   0.5925 -0.0444  0.8645  11.00000  0.05    0.24
Q14   1   0.4744  0.3525  0.7766  11.00000  0.05    0.24
Q15   1   0.3832  0.5532  0.8532  11.00000  0.05    0.24
Q16   1  -0.0026  0.8597  0.0981  11.00000  0.05    0.24
Q17   1   0.3209  0.4817  0.6458  11.00000  0.05    0.23
Q18   1  -0.2161  0.9563  0.3024  11.00000  0.05    0.23
Q19   1   0.5479  0.0778  0.8371  11.00000  0.05    0.23
Q20   1   0.1530  0.5981  0.5135  11.00000  0.05    0.23
;
_shelx_res_checksum              70766
_shelx_hkl_file
;
  -1   0   0 129.910 3.48794   2
  -1   0   0 120.068 5.93925   1
   1   0   0 132.383 6.17696   1
  -2   0   0 2488.23 63.1754   2
  -2   0   0 2468.09 63.1884   3
  -2   0   0 2461.88 68.9634   1
   2   0   0 2441.96 68.9423   1
   2   0   0 2432.62 63.1592   2
  -3   0   0 23.0936 1.38055   2
  -3   0   0 22.4395 1.31470   3
  -3   0   0 26.3025 6.85835   1
   3   0   0 23.4177 6.05646   1
   3   0   0 27.5434 1.48680   2
  -4   0   0 337.510 9.40382   2
  -4   0   0 322.609 18.4245   1
  -4   0   0 333.587 9.77633   3
   4   0   0 324.684 9.38127   2
   4   0   0 352.153 19.4040   1
  -5   0   0 32.2930 1.91415   2
  -5   0   0 29.7897 1.85497   3
  -5   0   0 31.9710 8.30526   1
   5   0   0 38.1318 9.22518   1
   5   0   0 29.9058 3.04783   2
  -6   0   0 274.521 8.71454   3
  -6   0   0 299.792 21.1188   1
  -6   0   0 276.372 8.62637   2
   6   0   0 296.495 8.75502   2
   6   0   0 303.054 22.8122   1
  -7   0   0 18.5789 1.89579   2
  -7   0   0 15.6890 1.80576   3
  -7   0   0 30.6721 10.5939   1
   7   0   0 20.2425 1.93717   2
   7   0   0 25.8557 12.8104   1
  -8   0   0 9.34901 13.2323   1
  -8   0   0 4.11755 1.34374   3
   8   0   0 -2.9645 13.0925   1
   8   0   0 0.44214 1.25621   2
  -9   0   0 0.07580 1.41127   3
  -9   0   0 -17.588 15.7885   1
   9   0   0 0.74472 1.30812   2
   9   0   0 -35.427 17.9532   1
 -10   0   0 0.28221 1.41888   3
  10   0   0 0.45023 1.31444   2
  10   0   0 -5.4498 32.0023   1
 -11   0   0 1.38514 1.89045   3
  11   0   0 2.17219 1.89805   2
  10  -1   0 -62.823 30.2530   1
  10  -1   0 -0.3044 1.54218   2
 -10   1   0 0.02226 1.58261   3
   9  -1   0 -25.683 21.4739   1
   9  -1   0 6.50230 1.91657   2
  -9   1   0 29.2730 19.8866   1
  -9   1   0 7.04324 2.05482   3
   8  -1   0 19.8775 2.01913   2
   8  -1   0 16.3804 16.6831   1
  -8   1   0 -3.6685 15.4701   1
  -8   1   0 31.3156 2.66929   3
   7  -1   0 19.2735 12.3177   1
   7  -1   0 8.18578 1.50113   2
  -7   1   0 9.55250 1.70378   3
  -7   1   0 11.7700 12.7908   1
  -7   1   0 10.2085 1.54857   2
   6  -1   0 40.2579 2.63001   2
   6  -1   0 51.7084 12.5755   1
  -6   1   0 46.3483 2.58793   2
  -6   1   0 41.4798 2.54569   3
  -6   1   0 63.5585 12.7050   1
   5  -1   0 274.545 20.1011   1
   5  -1   0 280.228 8.33062   2
  -5   1   0 272.476 8.30444   2
  -5   1   0 284.225 20.8472   1
  -5   1   0 284.354 8.50527   3
   4  -1   0 96.5147 3.50360   2
   4  -1   0 101.727 11.5825   1
  -4   1   0 111.875 12.1513   1
  -4   1   0 94.8658 3.49307   3
  -4   1   0 94.4085 3.47363   2
   3  -1   0 212.843 19.9930   1
   3  -1   0 225.763 6.44684   2
  -3   1   0 220.848 6.49990   3
  -3   1   0 227.985 6.43307   2
  -3   1   0 203.663 15.3571   1
   2  -1   0 705.511 19.3975   2
   2  -1   0 753.868 26.7449   1
  -2   1   0 717.370 19.4080   2
  -2   1   0 747.852 19.5330   3
  -2   1   0 804.597 27.3094   1
   1  -1   0 610.255 15.9237   2
   1  -1   0 621.448 20.5173   1
  -1   1   0 593.094 20.4772   1
  -1   1   0 623.504 15.9295   2
   0   1   0 192.075 6.74850   1
   0   1   0 174.130 4.74362   2
   1   1   0 26.4433 0.90302   2
  -2  -1   0 3726.99 96.0672   3
  -2  -1   0 3738.70 99.8488   1
   2   1   0 3784.82 100.050   1
  -3  -1   0 43.1077 9.01770   1
  -3  -1   0 43.4716 1.79168   3
   3   1   0 36.0618 5.41155   1
   3   1   0 57.6025 2.27924   2
  -4  -1   0 163.628 4.98928   2
  -4  -1   0 155.292 12.0742   1
  -4  -1   0 160.918 4.98281   3
   4   1   0 164.889 5.03291   2
   4   1   0 155.609 12.2835   1
  -5  -1   0 40.9773 7.75638   1
  -5  -1   0 43.4427 2.14044   3
  -5  -1   0 39.4603 2.09802   2
   5   1   0 40.1744 2.20482   2
   5   1   0 48.2490 8.88762   1
  -6  -1   0 -1.2009 5.96350   1
  -6  -1   0 0.63009 0.81025   3
  -6  -1   0 -0.4752 0.79143   2
   6   1   0 0.48292 0.81122   2
   6   1   0 11.9503 8.12107   1
  -7  -1   0 16.0023 9.19761   1
  -7  -1   0 33.8990 2.62747   2
  -7  -1   0 31.1930 2.36948   3
   7   1   0 26.4830 10.6954   1
   7   1   0 29.6874 2.46049   2
  -8  -1   0 0.45688 1.07639   3
  -8  -1   0 3.79175 11.0546   1
   8   1   0 4.07108 11.8431   1
   8   1   0 3.72599 1.38991   2
  -9  -1   0 9.79061 1.87060   3
   9   1   0 6.91063 18.0013   1
   9   1   0 5.13593 1.72285   2
 -10  -1   0 18.1180 2.46697   3
  10   1   0 10.6902 39.8478   1
  10   1   0 20.1867 2.51015   2
 -11  -1   0 -0.7228 1.75684   3
  11   1   0 0.94002 1.52843   2
  10  -2   0 79.8102 43.7447   1
   9  -2   0 1.10460 25.0424   1
   9  -2   0 15.0734 2.24380   2
  -9   2   0 12.1381 2.46767   3
   8  -2   0 6.80238 1.87162   2
   8  -2   0 -3.4290 18.7477   1
  -8   2   0 2.96409 1.52487   3
  -8   2   0 -3.8444 16.6692   1
   7  -2   0 7.29967 15.7288   1
   7  -2   0 11.5185 1.83740   2
  -7   2   0 9.04080 1.73228   3
  -7   2   0 36.3389 26.2636   1
   6  -2   0 35.3185 13.0040   1
   6  -2   0 24.4778 2.30062   2
  -6   2   0 27.6476 2.57453   2
  -6   2   0 31.2014 11.8028   1
  -6   2   0 30.0723 2.39964   3
   5  -2   0 69.2934 3.06074   2
   5  -2   0 53.8485 11.8232   1
  -5   2   0 64.2722 3.08847   3
  -5   2   0 62.2619 12.2688   1
  -5   2   0 64.8674 2.99111   2
   4  -2   0 111.064 13.0826   1
   4  -2   0 103.523 3.77978   2
  -4   2   0 104.520 3.91813   3
  -4   2   0 111.271 3.82090   2
  -4   2   0 96.3408 13.0397   1
   3  -2   0 91.3032 3.28993   2
   3  -2   0 91.3323 10.4276   1
  -3   2   0 102.461 3.36050   2
  -3   2   0 98.1136 3.48814   3
  -3   2   0 89.4300 11.0238   1
   2  -2   0 7.43741 4.25486   1
   2  -2   0 3.47457 0.67018   2
  -2   2   0 4.23178 0.73561   3
  -2   2   0 3.61880 0.69055   2
  -2   2   0 12.2925 5.27534   1
   1  -2   0 602.837 15.6944   2
   1  -2   0 616.004 21.9533   1
  -1   2   0 577.516 21.8399   1
  -1   2   0 601.153 15.6914   2
   0  -2   0 1235.28 32.8421   2
   0   2   0 1314.04 32.8562   2
   0   2   0 1287.47 36.9120   1
  -3  -2   0 16.8272 1.13895   2
  -3  -2   0 17.5428 1.06421   3
   3   2   0 16.2156 1.15012   2
   3   2   0 11.0602 3.26926   1
  -4  -2   0 54.8452 2.24562   2
  -4  -2   0 52.0515 2.18252   3
   4   2   0 56.8005 7.26106   1
   4   2   0 53.9284 2.30249   2
  -5  -2   0 243.889 7.20283   3
  -5  -2   0 234.062 7.12381   2
   5   2   0 253.127 15.6049   1
  -6  -2   0 688.339 19.0289   3
  -6  -2   0 686.514 18.9499   2
   6   2   0 710.045 31.6668   1
   6   2   0 700.257 18.9948   2
  -7  -2   0 320.465 10.0017   3
  -7  -2   0 325.680 9.93071   2
   7   2   0 333.757 10.0148   2
   7   2   0 374.281 23.8127   1
  -8  -2   0 22.4014 2.27237   3
   8   2   0 20.5983 11.6854   1
   8   2   0 19.9264 2.13214   2
   9   2   0 6.41542 13.9044   1
   9   2   0 0.30704 1.26024   2
 -10  -2   0 69.6745 4.07937   3
  10   2   0 55.0887 3.94746   2
 -11  -2   0 4.24132 1.91245   3
  11   2   0 5.72015 1.93666   2
 -12  -2   0 1.67008 1.89118   3
  12   2   0 -0.6665 1.92016   2
  10  -3   0 14.2136 2.68076   2
   9  -3   0 51.4640 33.0187   1
   9  -3   0 27.2102 2.73313   2
  -9   3   0 -2.2920 33.1377   1
  -9   3   0 33.3437 3.43771   3
   8  -3   0 -3.1012 21.3670   1
   8  -3   0 0.83433 1.19670   2
  -8   3   0 -5.6563 20.7532   1
  -8   3   0 -1.2582 1.25528   3
   7  -3   0 52.3553 18.5393   1
   7  -3   0 83.5398 4.09309   2
  -7   3   0 67.8064 18.4243   1
  -7   3   0 87.3588 4.38271   3
   6  -3   0 107.990 18.9716   1
   6  -3   0 92.9577 3.90577   2
  -6   3   0 75.4538 3.65397   2
  -6   3   0 74.2913 3.94955   3
  -6   3   0 66.9623 16.3738   1
   5  -3   0 197.862 6.56913   2
   5  -3   0 223.720 21.0965   1
  -5   3   0 229.519 21.2219   1
  -5   3   0 206.240 6.93695   3
  -5   3   0 192.471 6.54414   2
   4  -3   0 -0.6890 0.77047   2
   4  -3   0 0.10698 7.07633   1
  -4   3   0 0.56318 0.73413   2
  -4   3   0 10.7401 8.34538   1
  -4   3   0 -0.6421 0.77403   3
   3  -3   0 169.779 5.27192   2
   3  -3   0 189.044 15.2110   1
  -3   3   0 154.627 6.34569   2
  -3   3   0 171.135 15.1459   1
  -3   3   0 178.241 5.58974   3
   2  -3   0 854.624 22.4207   2
   2  -3   0 827.003 32.4352   1
  -2   3   0 865.422 22.4374   2
  -2   3   0 851.473 33.1029   1
   1  -3   0 48.5859 1.83161   2
   1  -3   0 29.9909 5.74207   1
  -1   3   0 47.7437 6.91370   1
  -1   3   0 52.7751 1.86267   2
   0  -3   0 15.3820 0.84793   2
   0  -3   0 12.6218 3.35407   1
   0   3   0 13.2735 3.67644   1
   0   3   0 14.2263 0.82888   2
  -1  -3   0 85.4629 2.48538   2
  -1  -3   0 84.3957 4.78332   1
   1   3   0 79.8419 5.25629   1
   1   3   0 85.3301 2.47553   2
   2   3   0 357.120 11.0002   1
   2   3   0 345.493 9.33427   2
  -3  -3   0 383.713 10.6758   3
   3   3   0 399.604 10.5621   2
  -4  -3   0 321.307 9.06959   3
   4   3   0 317.011 14.2775   1
   4   3   0 325.850 9.01001   2
  -5  -3   0 115.619 3.89228   3
  -5  -3   0 106.559 3.84016   2
   5   3   0 127.118 10.3894   1
   5   3   0 107.984 3.91149   2
  -6  -3   0 46.5553 2.31867   2
  -6  -3   0 43.0789 2.28571   3
   6   3   0 32.7111 8.36043   1
   6   3   0 41.1249 2.36205   2
  -7  -3   0 -0.5333 0.73053   2
  -7  -3   0 3.64795 1.10414   3
   7   3   0 1.62277 7.91336   1
   7   3   0 -1.4899 0.89089   2
  -8  -3   0 3.54631 1.08912   2
  -8  -3   0 5.56915 1.45591   3
   8   3   0 -7.0259 9.97200   1
   8   3   0 6.67160 1.46260   2
  -9  -3   0 1.72252 1.23198   3
   9   3   0 0.24377 1.22025   2
   9   3   0 5.13164 14.6781   1
 -10  -3   0 1.45839 1.43238   3
  10   3   0 1.62830 1.58904   2
 -11  -3   0 3.84505 1.68627   3
  11   3   0 3.77330 1.89829   2
 -12  -3   0 48.6848 4.12543   3
  12   3   0 46.4777 5.09655   2
   9  -4   0 -35.605 40.9261   1
   8  -4   0 49.1309 3.43378   2
   8  -4   0 65.9732 29.2987   1
  -8   4   0 -9.7462 26.4235   1
  -8   4   0 39.0711 3.52948   3
   7  -4   0 0.61431 1.19973   2
   7  -4   0 -4.6306 18.4376   1
  -7   4   0 -24.808 17.8154   1
  -7   4   0 -1.7003 1.27729   3
   6  -4   0 20.4262 15.5594   1
  -6   4   0 10.1912 14.4248   1
   5  -4   0 70.1252 3.41112   2
   5  -4   0 79.1604 17.3594   1
  -5   4   0 75.2454 3.44067   2
  -5   4   0 60.3251 15.2660   1
  -5   4   0 77.5850 3.79323   3
   4  -4   0 -7.7232 8.31752   1
   4  -4   0 -0.9239 0.80175   2
  -4   4   0 -10.634 8.03457   1
  -4   4   0 0.38745 0.82907   2
  -4   4   0 0.16550 0.91744   3
   3  -4   0 0.37768 0.73133   2
   3  -4   0 -0.1078 6.40359   1
  -3   4   0 5.45892 7.99568   1
  -3   4   0 0.18130 0.71620   2
  -3   4   0 0.38666 0.79069   3
   2  -4   0 16.1278 6.33236   1
   2  -4   0 19.8841 1.43931   2
  -2   4   0 21.9869 1.44104   2
  -2   4   0 23.1313 7.88110   1
   1  -4   0 75.5054 2.57902   2
  -1   4   0 68.7738 9.36115   1
  -1   4   0 73.4640 2.56593   2
   0  -4   0 1182.99 37.7709   1
   0  -4   0 1213.18 30.4818   2
   0   4   0 1147.70 30.4448   2
   0   4   0 1157.11 38.3536   1
  -1  -4   0 6.48098 2.79681   1
  -1  -4   0 10.4777 0.86437   2
   1   4   0 10.5560 3.50170   1
   1   4   0 9.87044 0.79536   2
   2   4   0 2640.07 69.6866   1
   2   4   0 2545.54 66.5525   2
   3   4   0 2.51840 0.64439   2
   3   4   0 5.39779 2.16303   1
  -4  -4   0 369.031 10.2941   3
   4   4   0 371.880 14.3721   1
   4   4   0 358.363 10.0724   2
  -5  -4   0 32.0742 1.84666   3
   5   4   0 30.2429 5.61554   1
   5   4   0 32.1035 1.84161   2
  -6  -4   0 52.2642 2.55875   3
   6   4   0 45.1224 8.20003   1
   6   4   0 56.2052 2.63620   2
  -7  -4   0 22.1030 1.92795   3
   7   4   0 22.6797 2.13618   2
   7   4   0 21.3924 8.56302   1
  -8  -4   0 2.83933 1.24245   3
   8   4   0 -0.1250 1.06065   2
   8   4   0 1.44191 9.24111   1
  -9  -4   0 25.6984 2.47077   3
   9   4   0 11.2155 13.3566   1
   9   4   0 24.7388 2.44018   2
 -10  -4   0 31.2527 2.94079   3
  10   4   0 30.5553 2.98970   2
 -11  -4   0 -2.2115 1.34976   3
  11   4   0 -3.9975 1.40748   2
 -12  -4   0 33.7305 3.60439   3
  12   4   0 33.5712 3.27715   2
   8  -5   0 -14.787 35.5533   1
   8  -5   0 2.39071 1.43351   2
  -8   5   0 1.70581 1.79274   3
  -8   5   0 -49.808 33.0917   1
   7  -5   0 9.31746 24.1765   1
   7  -5   0 16.1145 2.21848   2
  -7   5   0 1.90825 25.8453   1
  -7   5   0 12.2111 2.18518   3
   6  -5   0 0.61506 16.7527   1
   6  -5   0 18.4489 2.01449   2
  -6   5   0 37.0688 20.1965   1
  -6   5   0 21.2195 2.69627   3
   5  -5   0 126.889 4.87749   2
   5  -5   0 158.361 22.5891   1
  -5   5   0 123.533 4.83986   2
  -5   5   0 123.639 5.34094   3
  -5   5   0 110.066 19.8421   1
   4  -5   0 13.6952 10.9396   1
   4  -5   0 3.14724 1.08908   2
  -4   5   0 -0.4021 0.92633   2
  -4   5   0 2.64821 1.19029   3
  -4   5   0 11.1773 12.1301   1
   3  -5   0 5.33636 8.82744   1
  -3   5   0 13.5683 8.74406   1
   2  -5   0 42.3111 2.06954   2
   2  -5   0 15.0312 7.33705   1
  -2   5   0 49.8512 10.6001   1
   1  -5   0 522.585 14.0671   2
  -1   5   0 504.717 25.4068   1
  -1   5   0 531.869 14.0798   2
   0  -5   0 379.417 10.3917   2
   0  -5   0 388.579 18.3467   1
   0   5   0 378.459 18.8397   1
   0   5   0 391.007 10.4022   2
  -1  -5   0 213.025 10.7322   1
  -1  -5   0 199.793 5.64608   2
   1   5   0 200.142 5.62313   2
   1   5   0 193.131 11.7764   1
  -2  -5   0 25.0113 2.82338   1
   2   5   0 23.2823 1.21436   2
   2   5   0 19.7787 4.01044   1
   3   5   0 279.125 7.83963   2
   3   5   0 290.625 10.8257   1
   4   5   0 197.837 8.79661   1
   4   5   0 189.966 5.68228   2
   5   5   0 536.726 20.1490   1
   5   5   0 551.247 15.0502   2
   5   5   0 570.855 20.6871   1
  -6  -5   0 1.21996 0.95793   3
   6   5   0 -5.2552 4.54002   1
   6   5   0 -0.1389 0.76639   2
  -7  -5   0 0.83206 0.97138   3
   7   5   0 -1.3972 11.5974   1
   7   5   0 -0.1679 0.96698   2
  -8  -5   0 1.53445 1.07802   3
   8   5   0 0.68640 8.67879   1
   8   5   0 1.17377 1.09402   2
   9   5   0 9.03523 12.3540   1
 -10  -5   0 -0.4996 1.22516   3
  10   5   0 0.52935 1.32372   2
  10   5   0 -13.265 18.4791   1
 -11  -5   0 2.47574 1.58281   3
  11   5   0 8.22687 19.4683   1
  11   5   0 2.01664 1.53041   2
 -12  -5   0 4.68964 2.11692   3
  12   5   0 -0.6222 1.65267   2
   8  -6   0 -1.9886 1.34689   2
  -8   6   0 -62.211 45.7520   1
  -8   6   0 4.40087 2.27994   3
   7  -6   0 12.2039 1.98210   2
   7  -6   0 24.3246 32.5234   1
  -7   6   0 10.8376 34.3263   1
  -7   6   0 10.9607 2.34514   3
   6  -6   0 7.04121 24.5742   1
   6  -6   0 32.0569 2.69001   2
  -6   6   0 36.5359 25.3887   1
  -6   6   0 25.6185 3.12131   3
   5  -6   0 2.67431 1.17630   2
   5  -6   0 -5.0089 15.3843   1
  -5   6   0 -14.771 15.9641   1
  -5   6   0 2.73324 1.45143   3
   4  -6   0 4.12624 1.13761   2
   4  -6   0 -1.2868 21.4465   1
  -4   6   0 1.82784 1.45689   3
  -4   6   0 5.01233 1.17504   2
  -4   6   0 -1.7938 12.2395   1
   3  -6   0 231.373 21.4948   1
   3  -6   0 234.088 7.12580   2
  -3   6   0 226.101 7.09248   2
  -3   6   0 221.217 7.79025   3
  -3   6   0 220.231 27.6197   1
   2  -6   0 116.897 4.21447   2
   2  -6   0 94.0747 14.9290   1
  -2   6   0 153.840 18.2274   1
  -2   6   0 131.884 4.31091   2
   1  -6   0 161.581 5.09157   2
   1  -6   0 172.337 15.0770   1
  -1   6   0 172.432 15.9284   1
  -1   6   0 167.561 5.12137   2
   0  -6   0 6.20549 5.29961   1
   0  -6   0 4.34862 0.75401   2
   0   6   0 5.17440 0.77125   2
   0   6   0 5.29366 6.16571   1
  -1  -6   0 23.8804 1.29875   2
   1   6   0 26.7631 6.04849   1
   1   6   0 23.0802 1.27219   2
  -2  -6   0 277.150 7.62476   2
  -2  -6   0 282.389 10.7531   1
   2   6   0 253.806 14.3003   1
   2   6   0 279.300 7.61977   2
   3   6   0 62.9102 2.25825   2
   3   6   0 57.1880 6.02339   1
   4   6   0 292.185 8.51621   2
   4   6   0 313.265 8.54307   2
   4   6   0 305.013 11.8493   1
   5   6   0 646.350 21.6723   1
   5   6   0 636.825 17.2981   2
   6   6   0 53.1192 2.66861   2
   6   6   0 49.9003 7.49155   1
   6   6   0 69.3851 8.04832   1
   7   6   0 48.5100 8.83282   1
   7   6   0 61.5643 2.96693   2
   7   6   0 43.6847 8.10144   1
  -8  -6   0 11.8797 1.88934   3
   8   6   0 4.56273 8.51548   1
   8   6   0 7.97841 7.73455   1
   8   6   0 12.5431 1.67174   2
  -9  -6   0 4.44040 1.56936   3
   9   6   0 -4.7754 10.9373   1
   9   6   0 19.9720 10.4245   1
 -10  -6   0 2.13129 1.56065   3
  10   6   0 7.38008 15.8058   1
  10   6   0 3.62569 2.47240   2
  10   6   0 -18.220 12.0258   1
 -11  -6   0 29.4764 3.12315   3
  11   6   0 35.4291 3.20184   2
  11   6   0 39.8914 19.9191   1
 -12  -6   0 21.0494 3.17266   3
  12   6   0 8.17559 2.11491   2
   7  -7   0 11.3836 1.88136   2
  -7   7   0 9.68040 2.56572   3
  -7   7   0 -0.4823 47.0534   1
   6  -7   0 -47.227 31.2738   1
   6  -7   0 11.5654 1.83157   2
  -6   7   0 49.0649 29.5917   1
  -6   7   0 9.64928 2.41321   3
   5  -7   0 13.5535 20.6240   1
  -5   7   0 26.1163 21.2332   1
   4  -7   0 45.5320 2.64670   2
   4  -7   0 27.3208 17.6629   1
  -4   7   0 40.6162 3.34570   3
  -4   7   0 37.1184 2.58279   2
  -4   7   0 38.3727 19.2575   1
   3  -7   0 35.5561 2.34870   2
   3  -7   0 35.1738 14.1645   1
  -3   7   0 13.5837 25.3789   1
  -3   7   0 39.4225 2.39918   2
  -3   7   0 37.7303 2.98886   3
   2  -7   0 81.8629 3.31895   2
  -2   7   0 81.5898 15.6835   1
  -2   7   0 82.5530 3.32874   2
   1  -7   0 55.7084 11.0779   1
  -1   7   0 51.7810 2.39546   2
  -1   7   0 55.0817 12.5475   1
   0  -7   0 5.58189 0.92518   2
   0  -7   0 11.4110 6.48539   1
   0   7   0 14.6307 8.03288   1
   0   7   0 7.23997 0.92655   2
  -1  -7   0 2.26022 0.69955   2
  -1  -7   0 -0.3058 7.00697   1
   1   7   0 2.74948 0.67028   2
   1   7   0 1.14364 5.99877   1
  -2  -7   0 -0.3217 0.56272   2
  -2  -7   0 1.00987 2.99541   1
   2   7   0 2.86802 6.04275   1
   2   7   0 0.95024 0.54801   2
   3   7   0 105.743 9.06383   1
   3   7   0 94.9491 3.20109   2
   4   7   0 213.040 10.3887   1
   4   7   0 193.018 5.88818   2
   5   7   0 24.2286 2.04457   2
   5   7   0 23.1247 4.09555   1
   5   7   0 28.9063 1.74476   2
   6   7   0 109.189 4.08700   2
   6   7   0 113.828 4.07058   2
   6   7   0 103.224 9.28225   1
   6   7   0 135.221 9.37359   1
   7   7   0 -1.2674 0.85331   2
   7   7   0 3.26342 5.49024   1
   7   7   0 -0.7720 5.73304   1
   8   7   0 19.0845 8.70142   1
   8   7   0 19.0414 8.15325   1
   8   7   0 25.9683 2.24502   2
   9   7   0 4.19405 10.7883   1
   9   7   0 11.8868 9.33311   1
  10   7   0 3.36766 14.7422   1
  10   7   0 18.1404 3.03267   2
  10   7   0 11.4167 13.0629   1
  11   7   0 24.1173 17.9705   1
  12   7   0 -1.3095 1.58226   2
   6  -8   0 13.7769 2.02480   2
  -6   8   0 19.0727 2.95710   3
  -6   8   0 18.6401 45.2626   1
   5  -8   0 -6.4527 26.8116   1
  -5   8   0 -3.9760 28.5858   1
  -5   8   0 5.84811 2.07050   3
   4  -8   0 6.68285 19.2118   1
   4  -8   0 19.3431 1.88090   2
  -4   8   0 33.1661 23.7343   1
  -4   8   0 11.3229 2.01622   3
   3  -8   0 56.5277 2.97408   2
   3  -8   0 24.6602 16.3412   1
  -3   8   0 59.2564 3.37724   2
  -3   8   0 63.0501 3.96540   3
   2  -8   0 32.7240 2.20170   2
   2  -8   0 19.5974 12.3428   1
  -2   8   0 34.3706 2.17785   2
  -2   8   0 16.3113 13.2476   1
   1  -8   0 16.5476 1.68423   2
   1  -8   0 12.7013 10.5458   1
  -1   8   0 12.2134 1.31840   2
  -1   8   0 10.8717 12.0375   1
   0  -8   0 547.475 14.6580   2
   0  -8   0 524.623 26.8317   1
   0   8   0 521.734 14.5121   2
   0   8   0 519.410 30.3578   1
  -1  -8   0 304.797 8.56459   2
  -1  -8   0 303.066 17.7046   1
   1   8   0 294.588 20.5299   1
   1   8   0 302.418 8.53416   2
  -2  -8   0 -0.0074 0.63128   2
  -2  -8   0 1.73448 3.69227   1
   2   8   0 -3.9688 6.06588   1
   2   8   0 0.91841 0.62202   2
   3   8   0 6.67712 5.51070   1
   3   8   0 11.8646 1.17178   2
   4   8   0 12.2412 4.86661   1
   4   8   0 6.52465 0.88496   2
   5   8   0 30.9463 5.07105   1
   5   8   0 29.4082 1.78720   2
   6   8   0 58.5802 2.60651   2
   6   8   0 48.7072 6.02394   1
   6   8   0 53.3798 2.62549   2
   6   8   0 52.8026 6.09896   1
   7   8   0 231.380 13.4522   1
   7   8   0 254.383 7.68553   2
   7   8   0 253.225 13.9225   1
   7   8   0 240.610 7.60611   2
   8   8   0 49.3467 2.78233   2
   8   8   0 46.0213 2.78774   2
   8   8   0 53.6811 8.49554   1
   8   8   0 56.3120 9.78031   1
   9   8   0 -3.3641 9.99546   1
   9   8   0 6.21213 9.40293   1
   9   8   0 1.26192 1.14970   2
  10   8   0 -1.8167 14.0769   1
  10   8   0 1.68662 2.07428   2
  10   8   0 -11.092 12.4113   1
  11   8   0 1.02249 1.33874   2
  11   8   0 -6.9432 22.1246   1
  12   8   0 7.86307 1.93992   2
   5  -9   0 29.2951 2.67547   2
  -5   9   0 31.7319 4.02843   3
   4  -9   0 -20.287 26.5134   1
  -4   9   0 -16.854 31.3571   1
   3  -9   0 -12.760 19.4130   1
  -3   9   0 5.69726 23.7778   1
   2  -9   0 15.4371 15.9442   1
   2  -9   0 7.60351 1.28499   2
  -2   9   0 5.17067 1.24715   2
  -2   9   0 5.45682 18.1020   1
   1  -9   0 -0.9733 0.78441   2
   1  -9   0 3.42406 17.5511   1
  -1   9   0 -0.8335 13.4361   1
  -1   9   0 -0.1521 0.83300   2
   0  -9   0 -2.2483 9.19806   1
   0  -9   0 17.5907 1.90593   2
   0   9   0 18.2607 1.60764   2
   0   9   0 22.0475 12.2583   1
  -1  -9   0 79.2290 3.09134   2
  -1  -9   0 77.7814 11.1446   1
   1   9   0 51.7631 12.8935   1
   1   9   0 87.4284 3.31149   2
  -2  -9   0 10.5084 4.44616   1
  -2  -9   0 8.43629 4.87886   1
   2   9   0 -1.8008 8.10644   1
   2   9   0 6.25516 0.88733   2
   3   9   0 31.5207 1.71617   2
   3   9   0 39.1978 8.60293   1
   4   9   0 137.728 12.0619   1
   5   9   0 38.3265 2.11884   2
   5   9   0 44.4517 6.51467   1
   5   9   0 35.2036 1.96556   2
   6   9   0 56.1264 2.64051   2
   6   9   0 46.5530 5.74853   1
   6   9   0 54.1769 2.54499   2
   7   9   0 84.9431 3.58440   2
   7   9   0 90.3999 3.58580   2
   7   9   0 77.3725 8.16722   1
   8   9   0 11.5003 6.72438   1
   8   9   0 4.74383 7.79746   1
   8   9   0 3.94950 1.15504   2
   8   9   0 0.87744 0.94688   2
   9   9   0 25.9704 12.4824   1
   9   9   0 -6.8738 8.26116   1
  10   9   0 12.1712 12.1051   1
  11   9   0 -3.0402 1.16077   2
  11   9   0 -6.0299 16.7738   1
  12   9   0 -0.4587 1.47876   2
   4 -10   0 11.0244 1.69316   2
  -4  10   0 10.1237 2.81520   3
   3 -10   0 20.3246 1.99140   2
   3 -10   0 33.3394 27.0776   1
  -3  10   0 15.9891 2.78220   3
  -3  10   0 -13.879 27.9934   1
   2 -10   0 1.50770 1.01508   2
  -2  10   0 0.51092 1.23746   2
  -2  10   0 -11.106 23.3460   1
  -2  10   0 3.75501 1.67452   3
   1 -10   0 59.5503 2.86119   2
   1 -10   0 44.4800 16.7285   1
  -1  10   0 60.6986 2.86969   2
  -1  10   0 50.3032 20.7133   1
   0 -10   0 1.70513 0.86164   2
   0 -10   0 6.28281 11.7205   1
   0  10   0 -9.6555 14.3633   1
   0  10   0 3.01560 0.91459   2
  -1 -10   0 79.8700 12.0374   1
  -1 -10   0 82.9967 3.22505   2
   1  10   0 74.7205 25.5898   1
   1  10   0 83.9436 3.12384   2
  -2 -10   0 71.5478 9.00585   1
  -2 -10   0 82.6888 8.76021   1
   2  10   0 81.0354 2.96365   2
   2  10   0 61.5363 13.7722   1
   3  10   0 11.5007 9.31904   1
   4  10   0 6.86603 7.25968   1
   5  10   0 16.3936 6.29995   1
   6  10   0 32.5864 2.06499   2
   6  10   0 27.1912 4.91720   1
   6  10   0 30.5794 1.89772   2
   7  10   0 5.12888 1.13676   2
   7  10   0 3.30954 0.96595   2
   8  10   0 -1.8199 0.88892   2
   8  10   0 0.51129 1.00069   2
   9  10   0 52.7851 13.1129   1
   9  10   0 86.5927 3.89543   2
   9  10   0 78.0869 8.66441   1
  10  10   0 5.70595 1.66745   2
  10  10   0 0.34331 10.6223   1
  11  10   0 -1.8596 1.32488   2
  -3  11   0 5.59837 2.36355   3
   2 -11   0 44.2817 2.63281   2
   2 -11   0 48.6445 27.5173   1
  -2  11   0 60.4898 35.0137   1
  -2  11   0 42.3223 4.03506   3
   1 -11   0 -8.3858 19.3960   1
   1 -11   0 3.00497 1.07812   2
  -1  11   0 8.43705 24.4081   1
   0 -11   0 10.6514 1.29032   2
   0 -11   0 -1.3620 14.8703   1
   0  11   0 15.4117 19.1753   1
   0  11   0 12.1609 1.29338   2
  -1 -11   0 16.6260 10.3826   1
  -1 -11   0 25.6604 1.77858   2
   1  11   0 23.3413 1.71260   2
   1  11   0 35.2076 17.8635   1
  -2 -11   0 15.3985 4.92246   1
  -2 -11   0 11.3323 4.73277   1
   2  11   0 15.6344 1.44396   2
   2  11   0 20.9530 14.9435   1
   3  11   0 10.6655 1.11466   2
   3  11   0 9.36481 11.7357   1
   4  11   0 48.2413 11.9148   1
   4  11   0 43.7720 2.08373   2
   5  11   0 35.7898 1.96541   2
   5  11   0 36.5247 9.69341   1
   5  11   0 37.6717 2.11732   2
   6  11   0 1.49587 0.87064   2
   6  11   0 2.87547 4.67826   1
   6  11   0 0.70777 0.74761   2
   7  11   0 0.38713 0.87146   2
   7  11   0 1.69295 0.91174   2
   8  11   0 5.62332 1.19692   2
   8  11   0 4.53122 1.25845   2
   9  11   0 112.223 4.49874   2
  10  11   0 4.96805 1.47517   2
  11  11   0 75.8939 4.10638   2
   1 -12   0 3.76926 1.23588   2
  -1  12   0 8.27850 2.74190   3
   0 -12   0 14.6955 18.8532   1
  -1 -12   0 10.0576 12.4153   1
   1  12   0 52.6113 23.7089   1
   1  12   0 23.3254 1.82337   2
   2  12   0 -0.3829 0.74535   2
   2  12   0 -4.1272 18.6133   1
   3  12   0 -1.9620 15.5970   1
   3  12   0 1.66299 0.73450   2
   4  12   0 0.32534 21.4812   1
   5  12   0 3.03245 0.79297   2
   5  12   0 13.4421 10.3697   1
   5  12   0 1.36447 0.84902   2
   6  12   0 5.50615 0.95553   2
   6  12   0 5.80601 1.09109   2
   7  12   0 9.96412 1.36599   2
   7  12   0 10.3595 1.38559   2
   8  12   0 -0.6464 0.86678   2
   8  12   0 -0.2751 1.28298   2
   9  12   0 1.90952 1.18020   2
  10  12   0 0.00218 1.17531   2
   2  13   0 8.01131 25.4944   1
   3  13   0 39.0819 24.8915   1
   4  13   0 -5.2328 16.8262   1
   5  13   0 65.7267 3.10877   2
   5  13   0 49.7732 15.0234   1
   6  13   0 12.9318 1.35345   2
   7  13   0 56.1749 2.76763   2
   8  13   0 2.98948 1.04719   2
   9  13   0 3.03422 1.08461   2
   7  14   0 4.93500 1.63995   2
   5  14  -1 -17.690 25.5483   1
   9  13  -1 17.5020 1.79119   2
   8  13  -1 5.70797 1.15070   2
   7  13  -1 0.83430 0.91687   2
   5  13  -1 26.3690 15.3503   1
   4  13  -1 -7.0081 18.2351   1
   2  13  -1 -9.3955 26.6470   1
  10  12  -1 5.60823 1.45889   2
   9  12  -1 7.27369 1.24939   2
   8  12  -1 3.39478 1.17631   2
   8  12  -1 2.86169 1.10204   2
   7  12  -1 0.70473 0.89989   2
   7  12  -1 0.88131 0.88709   2
   6  12  -1 4.16634 0.99984   2
   6  12  -1 -2.0187 8.73194   1
   5  12  -1 2.99872 1.03919   2
   5  12  -1 -1.2490 11.3131   1
   3  12  -1 42.9985 17.2959   1
   2  12  -1 21.5452 19.2607   1
   1  12  -1 -19.280 21.9128   1
  -1 -12   1 -5.2181 12.6821   1
   0 -12   1 -38.542 18.8050   1
   1 -12   1 1.09778 0.97200   2
  10  11  -1 8.61273 1.46850   2
   9  11  -1 33.0007 2.49550   2
   8  11  -1 45.5547 2.55482   2
   8  11  -1 41.6343 2.51213   2
   7  11  -1 7.95824 1.11838   2
   7  11  -1 6.04213 1.17346   2
   6  11  -1 36.2683 1.96613   2
   6  11  -1 34.1249 2.00383   2
   6  11  -1 32.1835 8.23537   1
   5  11  -1 39.1807 1.93347   2
   4  11  -1 0.50622 0.58639   2
   4  11  -1 -18.933 9.75940   1
   4  11  -1 -0.3952 0.67889   2
   3  11  -1 12.3121 12.1085   1
   3  11  -1 10.3769 0.98526   2
   2  11  -1 7.00303 0.90706   2
   2  11  -1 8.79996 14.5460   1
  -2 -11   1 11.4902 6.14297   1
  -2 -11   1 11.8358 6.06698   1
   1  11  -1 -6.9982 17.7955   1
  -1 -11   1 -5.8027 11.2319   1
   0  11  -1 1.83491 0.82802   2
   0  11  -1 -6.0342 19.0106   1
   0 -11   1 0.81152 0.81654   2
   0 -11   1 -7.9379 15.1138   1
  -1  11  -1 -23.919 24.9294   1
  -1  11  -1 0.60380 1.03573   2
   1 -11   1 0.87358 0.88506   2
   1 -11   1 -6.4334 19.6582   1
  -2  11  -1 11.4514 2.87046   3
  -2  11  -1 -4.3376 34.3146   1
   2 -11   1 19.1841 28.7241   1
   2 -11   1 10.4353 1.34676   2
  -3  11  -1 0.81040 1.61819   3
   3 -11   1 1.51021 1.20466   2
  11  10  -1 -30.504 21.5387   1
  10  10  -1 10.6347 12.5348   1
   9  10  -1 55.4325 10.6073   1
   9  10  -1 62.0729 10.7664   1
   9  10  -1 61.0219 3.23479   2
   8  10  -1 50.7102 8.45563   1
   8  10  -1 52.5758 2.73704   2
   8  10  -1 42.7840 2.56088   2
   8  10  -1 36.1305 7.97008   1
   7  10  -1 22.7828 6.65328   1
   7  10  -1 29.0739 1.94812   2
   7  10  -1 23.8639 2.02156   2
   7  10  -1 34.1244 6.84894   1
   6  10  -1 3.56334 0.85384   2
   6  10  -1 3.53538 0.93428   2
   5  10  -1 7.30933 7.13394   1
   5  10  -1 16.4766 1.39226   2
   4  10  -1 36.8554 9.17665   1
   4  10  -1 22.8014 1.46381   2
   4  10  -1 28.4149 1.62764   2
   3  10  -1 30.2221 1.55153   2
   3  10  -1 21.8545 9.98515   1
   2  10  -1 59.9248 13.0371   1
   2  10  -1 55.8281 2.21525   2
  -2 -10   1 56.3394 7.87670   1
   1  10  -1 4.38100 18.2084   1
  -1 -10   1 2.94676 9.11502   1
   0  10  -1 15.4062 1.47852   2
   0  10  -1 28.3123 15.4316   1
   0 -10   1 10.5663 11.6709   1
   0 -10   1 14.3872 1.35612   2
  -1  10  -1 22.3712 18.6099   1
   1 -10   1 7.19103 15.2165   1
  -2  10  -1 19.3729 1.78628   2
  -2  10  -1 7.00054 21.7381   1
   2 -10   1 8.88932 27.2744   1
   2 -10   1 20.7137 1.96523   2
  -3  10  -1 61.5832 34.1331   1
  -3  10  -1 135.211 6.59714   3
   3 -10   1 124.287 4.80134   2
   3 -10   1 117.727 31.2102   1
  -4  10  -1 5.77966 2.14985   3
  12   9  -1 6.19891 1.91835   2
  11   9  -1 1.30129 1.41613   2
  11   9  -1 1.28207 18.2995   1
  10   9  -1 1.26203 2.34966   2
  10   9  -1 -2.1181 13.4237   1
   9   9  -1 69.6645 15.4808   1
   9   9  -1 68.0990 3.48246   2
   8   9  -1 1.05128 1.01623   2
   8   9  -1 0.72816 8.95561   1
   8   9  -1 -16.287 8.03818   1
   8   9  -1 1.45692 1.06308   2
   7   9  -1 22.8134 1.89768   2
   7   9  -1 27.0608 7.12128   1
   7   9  -1 24.1485 1.98810   2
   7   9  -1 33.9386 7.23718   1
   6   9  -1 23.1406 1.72895   2
   6   9  -1 26.7378 6.54634   1
   6   9  -1 25.9096 1.87118   2
   5   9  -1 0.84388 0.71110   2
   5   9  -1 1.02862 0.79267   2
   5   9  -1 -8.7252 5.48399   1
   4   9  -1 95.1745 10.6407   1
   4   9  -1 76.8630 2.77490   2
   4   9  -1 72.5594 2.79209   2
   3   9  -1 366.204 20.9579   1
   3   9  -1 352.040 9.78073   2
   2   9  -1 34.7038 9.51472   1
   2   9  -1 33.5870 1.62950   2
  -2  -9   1 27.8056 6.07231   1
   1   9  -1 12.0009 1.09199   2
   1   9  -1 6.57624 10.1339   1
  -1  -9   1 12.1522 1.10858   2
  -1  -9   1 7.92373 7.87327   1
   0   9  -1 169.963 5.78305   2
   0   9  -1 170.125 20.5078   1
   0  -9   1 155.164 18.7107   1
   0  -9   1 169.443 5.27344   2
  -1   9  -1 68.0384 16.6529   1
  -1   9  -1 87.5129 3.30208   2
   1  -9   1 82.4494 3.30261   2
  -2   9  -1 24.2006 1.93719   2
  -2   9  -1 43.1263 17.6821   1
   2  -9   1 23.5254 1.94680   2
   2  -9   1 6.16905 14.8466   1
  -3   9  -1 47.9839 2.89164   2
  -3   9  -1 54.1214 23.0727   1
  -3   9  -1 56.8161 4.00779   3
   3  -9   1 43.1781 2.70235   2
   3  -9   1 -28.983 21.2848   1
  -4   9  -1 -2.2759 31.3655   1
   4  -9   1 -18.736 26.4688   1
  -5   9  -1 -0.7019 1.86088   3
   5  -9   1 -0.7201 1.05963   2
  12   8  -1 3.78096 1.68779   2
  11   8  -1 44.9193 20.1671   1
  10   8  -1 1.98155 13.6659   1
  10   8  -1 -1.0239 1.60389   2
  10   8  -1 -5.4297 24.5110   1
   9   8  -1 12.6591 11.3200   1
   9   8  -1 10.3170 10.2441   1
   9   8  -1 12.7213 1.65407   2
   8   8  -1 0.57496 7.45514   1
   8   8  -1 -2.4827 8.28101   1
   8   8  -1 0.62363 1.01940   2
   7   8  -1 103.699 11.8001   1
   7   8  -1 108.561 12.1066   1
   7   8  -1 102.336 3.96053   2
   7   8  -1 106.197 4.05109   2
   6   8  -1 18.6407 1.57151   2
   6   8  -1 19.3635 5.76435   1
   6   8  -1 18.7290 1.83033   2
   5   8  -1 7.65755 4.67671   1
   5   8  -1 7.19442 1.04609   2
   4   8  -1 26.0615 6.14023   1
   4   8  -1 22.7556 1.42209   2
   4   8  -1 25.2249 1.55114   2
   3   8  -1 173.656 13.5773   1
   3   8  -1 163.779 4.88774   2
   2   8  -1 407.318 11.1047   2
   2   8  -1 385.857 22.3250   1
  -2  -8   1 433.792 17.6217   1
   1   8  -1 92.4878 3.15675   2
   1   8  -1 93.2661 13.3932   1
  -1  -8   1 109.851 12.4012   1
  -1  -8   1 97.3138 3.20857   2
   0   8  -1 15.1772 1.36819   2
   0   8  -1 17.3377 10.0114   1
   0  -8   1 13.2690 1.21487   2
   0  -8   1 3.03406 11.7051   1
  -1   8  -1 21.7085 1.62166   2
  -1   8  -1 15.5107 11.7959   1
   1  -8   1 20.7347 10.2750   1
   1  -8   1 17.5080 1.64493   2
  -2   8  -1 3.92019 0.98193   2
  -2   8  -1 23.2213 14.0035   1
   2  -8   1 -4.2576 11.6555   1
   2  -8   1 3.71069 1.01301   2
  -3   8  -1 16.1790 19.5569   1
  -3   8  -1 7.51824 1.91508   3
  -3   8  -1 10.7717 1.41495   2
   3  -8   1 10.6620 1.42651   2
   3  -8   1 15.2403 13.8381   1
  -4   8  -1 24.8135 21.7969   1
  -4   8  -1 0.34575 1.55793   3
   4  -8   1 0.32962 1.00142   2
   4  -8   1 -18.618 17.6754   1
  -5   8  -1 85.9356 5.06044   3
  -5   8  -1 49.3262 29.4535   1
   5  -8   1 68.0743 3.66426   2
   5  -8   1 104.230 31.7021   1
  -6   8  -1 -14.928 40.2116   1
  -6   8  -1 2.74606 1.78369   3
   6  -8   1 1.13703 1.29853   2
  12   7  -1 3.47059 1.63906   2
 -12  -7   1 2.19578 2.05483   3
  11   7  -1 4.42347 1.67177   2
  11   7  -1 1.48330 18.9319   1
 -11  -7   1 5.78331 1.86635   3
  10   7  -1 -6.2846 15.3485   1
  10   7  -1 2.66649 2.34360   2
  10   7  -1 2.15401 13.8844   1
 -10  -7   1 4.58223 1.63478   3
   9   7  -1 41.1863 12.2882   1
   9   7  -1 25.2365 12.4416   1
   9   7  -1 43.0966 2.82520   2
   8   7  -1 19.8823 9.03975   1
   8   7  -1 18.4924 8.77549   1
   8   7  -1 12.7494 1.59775   2
   7   7  -1 563.062 24.3720   1
   7   7  -1 579.136 25.1257   1
   7   7  -1 547.058 15.5982   2
   6   7  -1 54.1356 7.32358   1
   6   7  -1 42.0063 11.4220   1
   6   7  -1 50.6749 3.51287   2
   5   7  -1 37.9408 5.79867   1
   5   7  -1 41.7317 2.05350   2
   5   7  -1 39.0668 2.27712   2
   4   7  -1 1.27820 0.64626   2
   4   7  -1 0.48866 0.59180   2
   4   7  -1 4.19994 4.00971   1
   3   7  -1 113.470 3.51930   2
   3   7  -1 109.013 10.1535   1
   2   7  -1 794.047 21.2046   2
   2   7  -1 806.439 35.1563   1
  -2  -7   1 833.219 27.0598   1
   1   7  -1 471.940 12.7303   2
   1   7  -1 484.822 24.0925   1
  -1  -7   1 475.780 12.7509   2
   0   7  -1 3.07917 7.20803   1
   0   7  -1 6.01119 0.84764   2
   0  -7   1 5.94768 0.84254   2
   0  -7   1 3.77786 6.21417   1
  -1   7  -1 2.09378 7.94210   1
  -1   7  -1 8.47050 1.06339   2
   1  -7   1 8.26311 1.07353   2
   1  -7   1 6.48157 8.29402   1
  -2   7  -1 243.551 23.3507   1
  -2   7  -1 255.049 7.57246   2
  -3   7  -1 2.57652 24.4846   1
  -3   7  -1 1.39994 0.93873   2
  -3   7  -1 3.15785 1.50677   3
   3  -7   1 1.50511 0.95724   2
   3  -7   1 16.0497 11.5794   1
  -4   7  -1 -7.6951 15.5309   1
  -4   7  -1 1.55163 1.34455   3
  -4   7  -1 2.49001 1.13754   2
   4  -7   1 7.85021 14.9685   1
   4  -7   1 3.37779 1.12685   2
  -5   7  -1 12.8562 20.7007   1
  -5   7  -1 8.78014 2.03603   3
   5  -7   1 10.9744 1.69074   2
   5  -7   1 15.1783 21.5856   1
  -6   7  -1 1.24878 1.73315   3
  -6   7  -1 53.6062 28.5837   1
   6  -7   1 -38.613 27.6672   1
   6  -7   1 -0.5290 1.19980   2
  -7   7  -1 8.79615 2.54194   3
  -7   7  -1 7.17774 42.1331   1
   7  -7   1 7.96421 1.83023   2
  12   6  -1 47.7520 3.85264   2
 -12  -6   1 45.8115 3.96470   3
  11   6  -1 7.46645 1.94294   2
  11   6  -1 -3.9020 18.3163   1
 -11  -6   1 10.5443 2.12430   3
  10   6  -1 19.9027 14.4165   1
  10   6  -1 15.4487 15.2901   1
   9   6  -1 5.14029 10.6656   1
   9   6  -1 15.6072 1.80921   2
   9   6  -1 18.6028 12.5912   1
  -9  -6   1 12.4909 2.30793   3
   8   6  -1 4.07811 9.01572   1
   8   6  -1 -0.3836 0.96562   2
   8   6  -1 1.50231 7.88553   1
  -8  -6   1 1.40335 1.26854   3
   7   6  -1 18.5359 1.74758   2
   7   6  -1 13.2908 6.78220   1
   7   6  -1 21.7821 8.12496   1
  -7  -6   1 15.9175 1.81948   3
   6   6  -1 408.722 12.7521   2
   6   6  -1 424.908 19.5811   1
   6   6  -1 445.777 19.8693   1
   5   6  -1 42.7741 6.09249   1
   5   6  -1 38.8772 2.01466   2
   4   6  -1 126.139 4.04730   2
   4   6  -1 131.051 4.04558   2
   4   6  -1 137.001 8.68938   1
   3   6  -1 16.4243 4.15943   1
   3   6  -1 19.3732 1.15688   2
   2   6  -1 118.334 9.88585   1
   2   6  -1 110.561 3.32914   2
  -2  -6   1 109.281 7.27355   1
   1   6  -1 85.7811 2.73480   2
   1   6  -1 85.7149 9.99634   1
  -1  -6   1 89.2281 2.77388   2
   0   6  -1 99.2254 12.2337   1
   0   6  -1 106.259 3.28877   2
   0  -6   1 104.108 3.28707   2
   0  -6   1 89.8980 10.5070   1
  -1   6  -1 27.3252 8.37769   1
  -1   6  -1 28.9839 1.65603   2
   1  -6   1 34.6847 1.66853   2
   1  -6   1 23.3256 7.74732   1
  -2   6  -1 16.2145 9.64080   1
  -2   6  -1 3.09076 0.83997   2
   2  -6   1 4.41675 8.18492   1
  -3   6  -1 88.4761 4.12978   3
  -3   6  -1 78.2826 27.6669   1
  -3   6  -1 86.6918 3.48853   2
   3  -6   1 89.4482 3.49782   2
   3  -6   1 86.0039 14.4578   1
  -4   6  -1 30.5402 14.4888   1
  -4   6  -1 41.4386 3.05833   3
  -4   6  -1 41.9970 2.51724   2
   4  -6   1 39.2883 2.50417   2
   4  -6   1 25.3376 23.2994   1
  -5   6  -1 34.3912 3.26506   2
  -5   6  -1 35.8254 18.5414   1
  -5   6  -1 29.8376 2.86829   3
   5  -6   1 34.1041 2.47919   2
   5  -6   1 39.7570 17.0244   1
  -6   6  -1 6.92761 24.3069   1
  -6   6  -1 12.2321 2.20659   3
   6  -6   1 13.1533 25.0339   1
   6  -6   1 11.9762 1.72945   2
  -7   6  -1 11.6623 33.9855   1
   7  -6   1 -37.044 35.1006   1
   7  -6   1 24.1232 2.56668   2
  -8   6  -1 43.6753 51.9913   1
  12   5  -1 0.64378 1.64024   2
 -12  -5   1 -1.9198 1.62150   3
  11   5  -1 1.58575 1.50703   2
  11   5  -1 -16.335 19.5619   1
 -11  -5   1 1.71381 1.54832   3
  10   5  -1 0.06040 13.9408   1
  10   5  -1 2.75739 17.5381   1
  10   5  -1 3.80195 1.46443   2
 -10  -5   1 -1.9449 1.12733   3
   9   5  -1 9.00002 12.4874   1
   9   5  -1 1.11934 1.14239   2
   9   5  -1 -18.001 10.0577   1
   8   5  -1 70.7143 13.8375   1
   8   5  -1 65.6400 12.4127   1
   8   5  -1 84.3547 3.85891   2
  -8  -5   1 90.3108 4.04888   3
   7   5  -1 0.06016 7.08425   1
   7   5  -1 3.01842 1.06968   2
   7   5  -1 10.9129 8.33206   1
  -7  -5   1 2.72514 1.14326   3
   6   5  -1 14.2353 1.48826   2
   6   5  -1 10.0780 5.67336   1
  -6  -5   1 13.2134 1.61942   3
   5   5  -1 257.291 13.2102   1
   5   5  -1 227.881 12.7220   1
   5   5  -1 230.484 6.90017   2
  -5  -5   1 229.811 7.24294   3
   4   5  -1 9.66996 3.39673   1
   4   5  -1 10.4035 0.97127   2
   3   5  -1 279.955 7.58542   2
   3   5  -1 270.807 7.54764   2
   2   5  -1 546.622 14.2075   2
   2   5  -1 552.230 19.9499   1
  -2  -5   1 519.417 20.9666   1
   1   5  -1 3.78540 0.53009   2
   1   5  -1 0.24011 3.77586   1
  -1  -5   1 2.35788 3.20711   1
  -1  -5   1 3.93769 0.56459   2
   0   5  -1 810.176 31.0051   1
   0   5  -1 809.831 21.1379   2
   0  -5   1 807.820 29.9943   1
   0  -5   1 809.687 21.1408   2
  -1   5  -1 199.230 14.9129   1
  -1   5  -1 206.714 5.84844   2
   1  -5   1 199.491 5.81470   2
  -2   5  -1 115.044 3.83573   2
  -2   5  -1 106.487 13.8684   1
   2  -5   1 117.652 3.84093   2
   2  -5   1 109.194 13.3034   1
  -3   5  -1 154.680 22.7276   1
  -3   5  -1 154.324 5.05932   2
  -3   5  -1 154.914 5.62674   3
   3  -5   1 172.636 17.5180   1
   3  -5   1 152.178 5.54694   2
  -4   5  -1 116.620 4.86210   3
  -4   5  -1 103.783 18.3937   1
  -4   5  -1 125.605 4.44266   2
   4  -5   1 104.761 16.7423   1
   4  -5   1 114.286 4.33647   2
  -5   5  -1 100.512 19.6213   1
  -5   5  -1 79.3140 4.72166   3
  -5   5  -1 84.5145 4.00416   2
   5  -5   1 96.2424 18.5212   1
   5  -5   1 84.3395 3.74698   2
  -6   5  -1 -0.4786 1.24358   3
  -6   5  -1 -30.001 16.0279   1
   6  -5   1 26.5194 17.9011   1
   6  -5   1 -1.2467 0.98723   2
  -7   5  -1 80.5332 28.3447   1
  -7   5  -1 75.7733 4.53299   3
   7  -5   1 33.3706 25.7513   1
   7  -5   1 71.4579 3.90516   2
  -8   5  -1 61.8615 4.30063   3
  -8   5  -1 76.0094 39.0035   1
   8  -5   1 9.15146 38.8201   1
   8  -5   1 43.3364 3.57547   2
  12   4  -1 1.76974 2.48466   2
 -12  -4   1 -0.1884 2.14032   3
  11   4  -1 1.26457 19.6958   1
  11   4  -1 -1.3065 1.34878   2
 -11  -4   1 1.08279 1.70542   3
  10   4  -1 65.8267 4.04081   2
  10   4  -1 30.9583 26.1300   1
 -10  -4   1 64.2066 4.01780   3
   9   4  -1 87.6916 17.7381   1
   9   4  -1 61.4667 3.58414   2
   8   4  -1 19.8360 1.99772   2
   8   4  -1 22.4073 10.5733   1
  -8  -4   1 28.6872 2.43586   3
   7   4  -1 0.86032 0.94696   2
   7   4  -1 -5.5772 12.0547   1
  -7  -4   1 0.04539 0.94416   3
   6   4  -1 20.7537 1.83893   2
   6   4  -1 19.1141 6.53724   1
  -6  -4   1 22.0790 1.78923   3
   5   4  -1 -0.5447 3.97467   1
   5   4  -1 0.56368 0.70134   2
   5   4  -1 -4.1870 3.72951   1
  -5  -4   1 1.60401 0.84565   3
   4   4  -1 1413.18 43.1506   1
   4   4  -1 1480.97 37.6373   2
  -4  -4   1 1440.77 37.9334   3
   3   4  -1 2.42916 0.57829   2
   3   4  -1 0.17280 2.30142   1
   2   4  -1 49.4199 1.70655   2
   2   4  -1 50.9537 4.91361   1
   1   4  -1 14.0057 3.94994   1
   1   4  -1 17.1919 0.85617   2
  -1  -4   1 16.8224 3.52137   1
  -1  -4   1 16.5718 0.86843   2
   0   4  -1 1122.71 37.9467   1
   0   4  -1 1154.20 29.6429   2
   0  -4   1 1165.99 29.6509   2
   0  -4   1 1139.06 37.1295   1
  -1   4  -1 199.042 5.68946   2
  -1   4  -1 221.546 14.7223   1
   1  -4   1 197.255 5.68690   2
  -2   4  -1 51.5793 2.11849   2
  -2   4  -1 42.6373 8.78535   1
   2  -4   1 49.6583 8.72768   1
   2  -4   1 52.9920 2.12721   2
  -3   4  -1 267.723 7.70833   2
  -3   4  -1 258.255 8.11598   3
  -3   4  -1 273.417 21.1129   1
   3  -4   1 285.475 19.5847   1
   3  -4   1 253.744 8.10318   2
  -4   4  -1 2.43067 0.90094   2
  -4   4  -1 1.24761 1.01325   3
  -4   4  -1 3.36663 9.51196   1
   4  -4   1 2.03089 0.88693   2
   4  -4   1 16.7615 9.82202   1
  -5   4  -1 163.668 20.8565   1
  -5   4  -1 144.337 5.14763   2
  -5   4  -1 139.406 5.48493   3
   5  -4   1 147.004 5.17794   2
   5  -4   1 124.133 18.5708   1
  -6   4  -1 1.11584 1.46279   3
  -6   4  -1 14.3567 15.7703   1
   6  -4   1 3.29860 1.25499   2
   6  -4   1 -4.5036 13.6984   1
  -7   4  -1 121.725 5.53480   3
  -7   4  -1 91.3463 22.9218   1
   7  -4   1 106.419 25.5551   1
   7  -4   1 126.640 5.16285   2
  -8   4  -1 -1.6713 25.4358   1
  -8   4  -1 6.29371 1.86870   3
   8  -4   1 17.6188 27.1655   1
   8  -4   1 4.57046 1.60433   2
  -9   4  -1 3.10689 1.89408   3
   9  -4   1 3.04841 1.78885   2
   9  -4   1 -49.138 43.8014   1
  12   3  -1 15.1776 2.49546   2
 -12  -3   1 10.8168 2.46062   3
  11   3  -1 1.71828 1.70536   2
 -11  -3   1 -1.7200 1.41569   3
  10   3  -1 74.4257 4.38584   2
 -10  -3   1 81.1345 4.45627   3
   9   3  -1 11.9806 13.2889   1
   9   3  -1 8.23630 1.77891   2
  -9  -3   1 13.7359 2.36017   3
   8   3  -1 158.695 19.2244   1
   8   3  -1 163.575 5.90545   2
  -8  -3   1 138.680 5.61658   2
  -8  -3   1 173.177 6.05442   3
   7   3  -1 114.779 4.41086   2
   7   3  -1 105.044 14.6443   1
  -7  -3   1 106.701 4.24734   2
  -7  -3   1 113.135 4.41966   3
   6   3  -1 42.0414 9.12134   1
   6   3  -1 50.9239 2.53306   2
  -6  -3   1 43.1844 2.33612   2
  -6  -3   1 46.1004 2.43957   3
   5   3  -1 7.13227 0.99752   2
   5   3  -1 4.46683 4.74776   1
  -5  -3   1 7.82800 1.15712   3
  -5  -3   1 10.6517 1.15547   2
   4   3  -1 22.4769 5.03680   1
   4   3  -1 21.3570 1.47615   2
  -4  -3   1 22.9596 1.52948   3
  -4  -3   1 20.2657 1.42911   2
   3   3  -1 204.088 5.73112   2
   3   3  -1 205.740 9.70807   1
  -3  -3   1 199.099 5.93845   3
   2   3  -1 7.75070 2.33766   1
   2   3  -1 9.30062 0.75574   2
   1   3  -1 429.161 15.2551   1
   1   3  -1 433.108 11.2603   2
  -1  -3   1 437.518 14.7682   1
   0   3  -1 382.877 10.2625   2
   0   3  -1 405.449 16.0806   1
   0  -3   1 393.532 10.2665   2
  -1   3  -1 41.2413 1.58613   2
  -1   3  -1 42.0188 6.60606   1
   1  -3   1 39.7912 6.22439   1
   1  -3   1 40.2997 1.57167   2
  -2   3  -1 396.694 11.0138   2
  -2   3  -1 414.030 21.1163   1
   2  -3   1 423.882 20.5174   1
   2  -3   1 404.252 11.0133   2
  -3   3  -1 278.521 8.05639   2
  -3   3  -1 292.438 19.9358   1
  -3   3  -1 281.701 8.36509   3
   3  -3   1 280.097 18.1313   1
   3  -3   1 282.636 8.05775   2
  -4   3  -1 155.792 16.8966   1
  -4   3  -1 158.976 5.53275   3
  -4   3  -1 171.163 5.33997   2
   4  -3   1 148.460 16.2061   1
  -5   3  -1 17.8647 1.65549   2
  -5   3  -1 12.5815 1.57746   3
  -5   3  -1 -3.2606 8.87129   1
   5  -3   1 14.3203 1.44185   2
   5  -3   1 22.1544 10.3155   1
  -6   3  -1 10.0517 1.64494   3
  -6   3  -1 11.8764 1.46990   2
  -6   3  -1 -8.9153 10.6654   1
   6  -3   1 5.75556 12.9855   1
   6  -3   1 12.2996 1.69917   2
  -7   3  -1 -7.8579 16.7369   1
  -7   3  -1 3.43535 1.53596   3
   7  -3   1 5.12792 1.43703   2
   7  -3   1 -14.326 14.9611   1
  -8   3  -1 7.24599 1.90307   3
  -8   3  -1 -27.225 21.8061   1
   8  -3   1 -16.059 21.2810   1
  -9   3  -1 -6.5156 28.7438   1
  -9   3  -1 7.72249 2.24578   3
   9  -3   1 2.80441 1.45657   2
   9  -3   1 -14.018 33.4672   1
 -10   3  -1 10.7851 2.27655   3
  11   2  -1 0.33183 1.59682   2
 -11  -2   1 0.89076 1.86486   3
  10   2  -1 -31.782 40.0277   1
   9   2  -1 -1.6821 16.9897   1
   9   2  -1 2.47947 1.44224   2
  -9  -2   1 1.83124 1.57533   3
   8   2  -1 301.233 9.55774   2
   8   2  -1 297.787 25.8036   1
  -8  -2   1 297.104 9.66414   3
   7   2  -1 54.2948 12.7746   1
   7   2  -1 47.2621 2.87493   2
  -7  -2   1 43.9962 2.61328   2
  -7  -2   1 51.3053 2.83499   3
   6   2  -1 47.5696 2.59897   2
   6   2  -1 43.9808 9.62791   1
  -6  -2   1 51.5488 2.50764   2
  -6  -2   1 45.9616 2.54550   3
   5   2  -1 339.764 18.3726   1
  -5  -2   1 317.674 9.37762   3
  -5  -2   1 321.436 9.24937   2
   4   2  -1 18.7792 1.48656   2
   4   2  -1 16.4856 5.15810   1
  -4  -2   1 23.0066 1.45639   2
   3   2  -1 20.5233 4.18282   1
   3   2  -1 18.3448 1.20746   2
  -3  -2   1 19.0981 1.18129   2
  -3  -2   1 18.7398 1.21354   3
   2   2  -1 9816.88 254.406   1
   1   2  -1 915.457 26.6506   1
  -1  -2   1 944.554 26.4249   1
   0   2  -1 51.4043 1.48016   2
   0   2  -1 48.7648 4.77747   1
   0  -2   1 50.6753 1.46983   2
  -1   2  -1 0.78563 0.39276   2
  -1   2  -1 -0.5172 2.77283   1
   1  -2   1 -3.3539 2.50859   1
   1  -2   1 1.06720 0.39228   2
  -2   2  -1 -2.2301 3.72587   1
  -2   2  -1 1.57440 0.58749   2
   2  -2   1 2.29997 4.01651   1
   2  -2   1 0.72366 0.54562   2
  -3   2  -1 33.0478 7.74226   1
  -3   2  -1 38.8938 1.90966   3
  -3   2  -1 35.0938 1.82939   2
   3  -2   1 36.7229 1.84737   2
   3  -2   1 37.3282 7.90494   1
  -4   2  -1 328.197 9.63594   3
  -4   2  -1 327.641 9.48465   2
  -4   2  -1 345.023 21.5624   1
   4  -2   1 339.824 21.0578   1
  -5   2  -1 8.42014 8.49552   1
  -5   2  -1 14.8029 1.72348   3
  -5   2  -1 18.3094 1.68661   2
   5  -2   1 21.0641 9.23846   1
   5  -2   1 12.8765 1.43034   2
  -6   2  -1 78.7021 15.0130   1
  -6   2  -1 65.4573 3.32140   3
  -6   2  -1 62.3944 3.16292   2
   6  -2   1 72.9693 3.36019   2
   6  -2   1 59.7681 14.4977   1
  -7   2  -1 51.3106 3.16943   3
   7  -2   1 51.6377 3.10829   2
   7  -2   1 44.3491 15.7705   1
  -8   2  -1 9.20150 1.83862   3
  -8   2  -1 -12.538 16.1097   1
   8  -2   1 9.16043 1.83973   2
   8  -2   1 8.96617 18.4242   1
  -9   2  -1 8.89129 39.7125   1
  -9   2  -1 5.06445 1.70068   3
   9  -2   1 7.11650 1.75262   2
   9  -2   1 26.4009 29.1207   1
  10  -2   1 -3.0813 37.4672   1
  11   1  -1 0.83935 1.41771   2
 -11  -1   1 1.69027 1.88890   3
  10   1  -1 26.7152 29.7537   1
  10   1  -1 5.78636 1.84159   2
 -10  -1   1 6.51174 1.86030   3
   9   1  -1 12.5047 17.0420   1
   9   1  -1 12.5435 2.80513   2
  -9  -1   1 14.2123 2.09270   3
   8   1  -1 -3.0098 1.02681   2
   8   1  -1 -20.152 11.4812   1
  -8  -1   1 2.24278 1.33014   3
   7   1  -1 69.4308 3.50258   2
   7   1  -1 54.7236 13.4297   1
  -7  -1   1 72.4756 3.53309   3
   6   1  -1 42.9861 2.91256   2
   6   1  -1 25.1181 9.21805   1
  -6  -1   1 38.0529 2.25938   2
  -6  -1   1 36.4295 2.30501   3
  -6  -1   1 37.6978 8.80366   1
   5   1  -1 1022.57 39.1175   1
   5   1  -1 983.534 27.0644   2
  -5  -1   1 1036.54 38.6590   1
  -5  -1   1 1026.56 27.2026   3
  -5  -1   1 1025.89 27.0531   2
   4   1  -1 1799.98 48.1652   2
   4   1  -1 1907.90 58.6538   1
  -4  -1   1 1826.69 48.1667   2
  -4  -1   1 1911.44 58.0916   1
  -4  -1   1 1848.59 48.7025   3
   3   1  -1 187.590 11.0830   1
   3   1  -1 187.371 5.48268   2
  -3  -1   1 192.457 5.49681   2
  -3  -1   1 191.254 5.55450   3
   1   1  -1 47.1180 3.43482   1
   1   1  -1 40.4721 1.30162   2
  -1  -1   1 43.5827 1.31125   2
  -1   1  -1 1519.48 44.7753   1
  -1   1  -1 1565.62 39.8719   2
   1  -1   1 1559.44 39.8719   2
   1  -1   1 1564.04 44.8082   1
  -2   1  -1 223.760 6.12927   2
  -2   1  -1 225.666 12.2001   1
  -2   1  -1 214.815 6.15106   3
   2  -1   1 216.390 6.11399   2
   2  -1   1 232.032 12.2179   1
  -3   1  -1 -0.9821 4.28774   1
  -3   1  -1 1.10990 0.68509   2
  -3   1  -1 0.73837 0.60741   3
   3  -1   1 1.23639 0.68400   2
  -4   1  -1 329.119 11.1113   2
  -4   1  -1 350.553 20.0196   1
  -4   1  -1 359.401 9.94345   3
   4  -1   1 390.565 20.4323   1
   4  -1   1 338.029 9.82654   2
  -5   1  -1 74.4894 3.09796   3
  -5   1  -1 63.9751 11.3055   1
   5  -1   1 73.1360 3.13868   2
   5  -1   1 75.5947 11.6148   1
  -6   1  -1 12.3714 8.26188   1
  -6   1  -1 5.54171 1.13870   2
  -6   1  -1 7.10305 1.38674   3
   6  -1   1 5.01834 1.21770   2
   6  -1   1 0.92185 8.90231   1
  -7   1  -1 0.55253 10.5814   1
  -7   1  -1 1.89537 0.97577   2
  -7   1  -1 1.62530 1.20854   3
   7  -1   1 3.07180 1.23992   2
   7  -1   1 4.94214 11.1884   1
  -8   1  -1 15.1082 2.98737   3
  -8   1  -1 33.7239 14.6054   1
   8  -1   1 13.1104 16.1467   1
   8  -1   1 15.5064 2.08461   2
  -9   1  -1 -0.3993 1.31080   3
  -9   1  -1 8.43508 18.8449   1
   9  -1   1 -19.092 22.6474   1
   9  -1   1 0.98960 1.42497   2
  10  -1   1 44.5501 35.5448   1
 -11   1  -1 1.58732 1.94726   3
  11  -1   1 1.86015 1.71653   2
 -11   0   1 -1.1642 1.57716   3
  10   0  -1 35.9470 32.3052   1
   9   0  -1 28.7333 19.6305   1
   8   0  -1 16.2292 2.00206   2
   8   0  -1 2.78752 16.2543   1
  -8   0   1 36.4082 13.5596   1
   7   0  -1 200.831 6.90369   2
   7   0  -1 232.548 22.8363   1
  -7   0   1 215.487 21.8543   1
  -7   0   1 202.779 6.82789   2
  -7   0   1 194.924 6.96028   3
   6   0  -1 250.352 7.75544   2
   6   0  -1 265.481 21.3027   1
  -6   0   1 239.631 20.6920   1
  -6   0   1 243.100 7.72083   2
  -6   0   1 244.832 7.85628   3
   5   0  -1 36.2829 8.65393   1
   5   0  -1 45.3301 2.38412   2
  -5   0   1 40.0914 8.60929   1
  -5   0   1 45.1050 2.30314   2
  -5   0   1 47.2636 2.35685   3
   4   0  -1 4.00564 0.89667   2
   4   0  -1 7.70345 5.58467   1
  -4   0   1 -2.7129 5.35327   1
  -4   0   1 7.96285 1.23950   2
  -4   0   1 6.80211 1.15549   3
   3   0  -1 1302.18 44.0579   1
   3   0  -1 1303.46 33.6365   2
  -3   0   1 1290.71 33.6148   2
  -3   0   1 1271.52 33.7150   3
   2   0  -1 6360.02 172.051   1
  -2   0   1 6586.74 172.140   1
   1   0  -1 2022.35 53.3371   1
  -1   0   1 2050.51 53.4019   1
  -1   0   1 1739.58 49.6057   3
  -1   0  -1 24.7389 2.90403   1
  -1   0  -1 23.5568 0.86715   2
   1   0   1 20.4261 2.69709   1
  -2   0  -1 4988.14 132.261   1
   2   0   1 4900.57 132.153   1
  -3   0  -1 1270.43 32.7421   2
  -3   0  -1 1273.78 32.7122   3
  -3   0  -1 1173.11 44.3786   1
   3   0   1 1255.01 42.1066   1
   3   0   1 1295.66 32.7486   2
  -4   0  -1 298.739 16.8529   1
  -4   0  -1 291.050 8.15946   3
  -4   0  -1 277.637 8.13999   2
   4   0   1 285.122 16.8358   1
   4   0   1 282.336 8.16503   2
  -5   0  -1 111.817 3.97013   3
  -5   0  -1 123.158 12.8320   1
   5   0   1 110.049 4.51119   2
   5   0   1 122.577 12.4198   1
  -6   0  -1 117.727 4.37179   3
  -6   0  -1 117.895 4.34928   2
  -6   0  -1 124.554 14.6455   1
   6   0   1 131.620 15.7544   1
  -7   0  -1 4.99028 1.19931   2
  -7   0  -1 -9.2533 8.47060   1
  -7   0  -1 8.09253 1.57080   3
   7   0   1 12.9332 11.8585   1
   7   0   1 5.48085 1.29879   2
  -8   0  -1 -4.6163 11.3931   1
  -8   0  -1 1.41012 1.15624   3
   8   0   1 0.58284 1.18149   2
   8   0   1 14.8647 13.6119   1
  -9   0  -1 0.15412 1.24871   3
  -9   0  -1 3.69310 17.1908   1
   9   0   1 -0.4202 1.35392   2
   9   0   1 -29.861 17.3595   1
 -10   0  -1 7.23779 2.04779   3
  10   0   1 -17.212 43.9551   1
  10   0   1 2.15402 1.57949   2
 -11   0  -1 4.34254 2.04665   3
  11   0   1 5.75396 1.71013   2
  10  -1  -1 23.2621 2.71158   2
  10  -1  -1 23.3343 37.4087   1
 -10   1   1 27.2765 3.32068   3
   9  -1  -1 11.1903 23.2645   1
   9  -1  -1 45.1142 3.51602   2
  -9   1   1 42.6845 3.40786   3
   8  -1  -1 24.6902 2.56821   2
   8  -1  -1 26.9275 17.1933   1
  -8   1   1 19.1376 2.39670   3
  -8   1   1 -20.380 14.2584   1
   7  -1  -1 12.8704 1.72257   2
   7  -1  -1 19.6932 12.6389   1
  -7   1   1 18.4522 2.29234   3
  -7   1   1 17.5847 19.6082   1
   6  -1  -1 75.4249 3.49295   2
   6  -1  -1 93.9384 15.8372   1
  -6   1   1 69.7218 3.34956   2
  -6   1   1 78.6980 3.60396   3
  -6   1   1 71.5173 13.2260   1
   5  -1  -1 -1.4073 6.93853   1
   5  -1  -1 1.25003 0.88419   2
  -5   1   1 4.92976 6.88516   1
  -5   1   1 1.10651 0.94512   3
  -5   1   1 -0.0777 0.74619   2
   4  -1  -1 112.535 12.5350   1
  -4   1   1 119.882 4.20493   3
  -4   1   1 121.022 4.09106   2
  -4   1   1 132.971 12.9256   1
   3  -1  -1 91.2083 3.15430   2
   3  -1  -1 69.3566 14.1886   1
  -3   1   1 93.1672 3.16366   2
  -3   1   1 84.0477 10.2928   1
   2  -1  -1 97.6282 3.15055   2
   2  -1  -1 114.123 9.09899   1
  -2   1   1 117.740 9.06739   1
  -2   1   1 99.2410 3.15606   2
  -2   1   1 99.6185 3.23692   3
   1  -1  -1 3906.69 104.081   1
  -1   1   1 3796.38 103.918   1
   0   1   1 4035.54 105.619   1
  -1  -1  -1 211.432 6.24463   1
  -2  -1  -1 9999.99 254.835   1
   2   1   1 9671.87 254.911   1
  -3  -1  -1 219.039 5.94254   3
  -3  -1  -1 209.054 6.01193   2
   3   1   1 210.327 6.02956   2
   3   1   1 207.540 11.2277   1
  -4  -1  -1 615.820 16.7657   2
  -4  -1  -1 615.518 16.7119   3
  -4  -1  -1 635.608 24.7405   1
   4   1   1 639.528 25.1584   1
   4   1   1 631.735 16.8080   2
  -5  -1  -1 688.749 18.3935   3
  -5  -1  -1 685.901 28.9135   1
  -5  -1  -1 684.597 18.4098   2
   5   1   1 659.451 18.4910   2
   5   1   1 692.867 28.9143   1
  -6  -1  -1 112.008 12.9183   1
  -6  -1  -1 119.112 4.42118   3
  -6  -1  -1 147.183 4.98053   2
   6   1   1 127.887 14.3922   1
   6   1   1 119.058 4.51241   2
  -7  -1  -1 10.7770 1.54952   2
  -7  -1  -1 8.76869 1.48144   3
  -7  -1  -1 14.1384 9.57542   1
   7   1   1 12.7150 10.6148   1
   7   1   1 11.0269 1.66000   2
  -8  -1  -1 1.48869 1.12591   3
  -8  -1  -1 6.73510 11.2396   1
   8   1   1 25.3830 13.5139   1
  -9  -1  -1 -7.4607 14.5622   1
   9   1   1 -2.2452 17.3725   1
   9   1   1 1.50403 1.30496   2
 -10  -1  -1 5.44775 1.69597   3
  10   1   1 6.39504 1.82428   2
 -11  -1  -1 -0.5046 1.55179   3
  11   1   1 1.90691 1.77893   2
  10  -2  -1 -25.136 49.2756   1
  10  -2  -1 2.02384 1.84494   2
 -10   2   1 1.83499 2.02289   3
   9  -2  -1 7.83686 1.74590   2
   9  -2  -1 0.16010 26.0596   1
  -9   2   1 -56.847 38.9618   1
  -9   2   1 7.09412 1.91881   3
   8  -2  -1 31.9397 19.3895   1
   8  -2  -1 8.76094 2.38213   2
  -8   2   1 7.37656 1.80413   3
  -8   2   1 -24.364 19.0533   1
   7  -2  -1 209.803 7.26242   2
   7  -2  -1 183.576 24.1545   1
  -7   2   1 207.888 8.15610   3
  -7   2   1 222.123 29.7787   1
   6  -2  -1 -0.4006 0.92157   2
   6  -2  -1 3.89705 10.8347   1
  -6   2   1 -0.5327 1.01129   2
  -6   2   1 -6.3933 9.16030   1
  -6   2   1 -0.9408 1.00398   3
   5  -2  -1 251.578 7.67252   2
   5  -2  -1 232.121 20.7365   1
  -5   2   1 215.156 21.3166   1
  -5   2   1 247.974 7.67381   2
  -5   2   1 251.167 7.93607   3
   4  -2  -1 51.0630 9.96843   1
   4  -2  -1 44.4693 2.89135   2
  -4   2   1 52.0272 2.52690   3
  -4   2   1 60.7122 10.4856   1
  -4   2   1 44.8048 2.28260   2
   3  -2  -1 -2.6901 4.11038   1
   3  -2  -1 0.42015 0.67099   2
  -3   2   1 0.14815 0.72432   3
  -3   2   1 0.58313 0.63651   2
  -3   2   1 2.41824 5.14081   1
   2  -2  -1 33.3832 1.63535   2
   2  -2  -1 28.8461 6.43583   1
  -2   2   1 33.8001 1.64108   2
  -2   2   1 34.5332 1.72971   3
  -2   2   1 32.0316 6.36473   1
   1  -2  -1 337.317 14.9457   1
   1  -2  -1 343.241 9.06000   2
  -1   2   1 339.112 15.1138   1
  -1   2   1 328.245 9.03822   2
   0  -2  -1 942.157 24.5113   2
   0   2   1 954.560 28.7265   1
   0   2   1 949.861 24.5160   2
   1   2   1 3156.85 81.8931   1
   2   2   1 2404.18 63.0964   1
  -3  -2  -1 8.92530 3.22138   1
  -3  -2  -1 10.9736 0.85950   3
   3   2   1 10.8968 1.03893   2
   3   2   1 8.09383 2.95069   1
  -4  -2  -1 434.119 11.9892   3
  -4  -2  -1 437.137 18.0285   1
   4   2   1 465.607 12.1400   2
   4   2   1 426.818 18.4467   1
  -5  -2  -1 3.21076 4.37320   1
  -5  -2  -1 0.52339 0.88040   3
  -5  -2  -1 0.75985 0.75170   2
   5   2   1 -11.725 3.88043   1
  -6  -2  -1 165.618 5.42849   2
  -6  -2  -1 164.158 5.35194   3
  -6  -2  -1 158.113 14.0549   1
   6   2   1 159.110 5.44210   2
   6   2   1 169.942 15.4371   1
  -7  -2  -1 50.4285 10.7806   1
  -7  -2  -1 58.0006 2.88858   3
   7   2   1 61.3155 11.7391   1
   7   2   1 58.3793 3.10521   2
  -8  -2  -1 138.726 5.16344   3
  -8  -2  -1 113.881 5.12262   2
   8   2   1 140.770 5.27708   2
   8   2   1 171.493 19.6166   1
  -9  -2  -1 3.00562 1.43616   3
   9   2   1 4.90464 15.6003   1
   9   2   1 1.47553 1.35172   2
 -10  -2  -1 33.3432 2.94684   3
  10   2   1 49.7623 37.6493   1
  10   2   1 27.4285 2.75786   2
 -11  -2  -1 -1.0971 1.57407   3
  11   2   1 -1.0671 1.55162   2
 -12  -2  -1 32.7453 3.48603   3
  12   2   1 29.4088 3.23058   2
   9  -3  -1 5.67685 36.4895   1
   9  -3  -1 3.36712 1.78780   2
  -9   3   1 6.75218 2.08070   3
  -9   3   1 14.1518 34.6639   1
   8  -3  -1 46.9234 24.7143   1
   8  -3  -1 34.0136 3.11268   2
  -8   3   1 33.4878 23.2786   1
  -8   3   1 39.1638 3.36183   3
   7  -3  -1 42.6284 19.3430   1
   7  -3  -1 40.0756 3.01147   2
  -7   3   1 20.5189 15.7803   1
  -7   3   1 44.5549 3.27048   3
   6  -3  -1 40.6369 2.80679   2
   6  -3  -1 29.1333 14.0538   1
  -6   3   1 36.3692 14.3276   1
  -6   3   1 33.6437 2.79714   3
  -6   3   1 39.1559 2.65095   2
   5  -3  -1 18.7738 11.8799   1
   5  -3  -1 37.1159 2.48541   2
  -5   3   1 48.0770 12.4888   1
  -5   3   1 37.4443 2.40534   2
  -5   3   1 39.0669 2.67739   3
   4  -3  -1 94.7780 14.1306   1
   4  -3  -1 121.701 4.29904   2
  -4   3   1 140.893 16.0652   1
  -4   3   1 118.514 4.27927   2
  -4   3   1 118.120 4.52811   3
   3  -3  -1 332.642 20.3303   1
   3  -3  -1 282.161 9.14666   2
  -3   3   1 305.297 9.08770   3
  -3   3   1 300.962 19.8703   1
  -3   3   1 316.636 8.78694   2
   2  -3  -1 162.017 12.5950   1
   2  -3  -1 156.539 4.79818   2
  -2   3   1 159.194 4.82514   2
  -2   3   1 159.880 5.08725   3
  -2   3   1 143.818 13.1823   1
   1  -3  -1 497.926 21.5143   1
   1  -3  -1 515.607 13.7640   2
  -1   3   1 521.428 21.8472   1
  -1   3   1 526.623 13.7684   2
   0  -3  -1 8.77691 3.24958   1
   0  -3  -1 7.32893 0.67155   2
   0   3   1 6.77350 0.62635   2
   0   3   1 -0.8583 2.83247   1
  -1  -3  -1 211.893 7.82394   1
  -1  -3  -1 198.159 5.58498   2
   1   3   1 194.031 8.30638   1
   1   3   1 209.581 5.58764   2
   2   3   1 260.029 7.06813   2
   3   3   1 107.291 5.54699   1
   3   3   1 101.251 3.27084   2
  -4  -3  -1 13.9191 1.16088   3
   4   3   1 13.9822 1.33777   2
   4   3   1 13.3524 4.02917   1
  -5  -3  -1 15.0997 1.29267   3
   5   3   1 11.2664 4.73487   1
   5   3   1 18.6523 1.58010   2
  -6  -3  -1 1.02972 0.81914   3
   6   3   1 0.97743 0.85895   2
   6   3   1 1.75835 5.63391   1
  -7  -3  -1 190.003 6.26204   3
   7   3   1 193.790 6.41666   2
   7   3   1 189.100 17.3834   1
  -8  -3  -1 -0.4188 0.96103   3
   8   3   1 -0.1793 1.06336   2
   8   3   1 0.74870 8.92646   1
  -9  -3  -1 0.60529 1.24531   3
   9   3   1 -0.2647 1.09483   2
   9   3   1 -8.9899 13.3220   1
  10   3   1 24.9443 20.7594   1
 -11  -3  -1 6.08626 1.76880   3
  11   3   1 5.20180 1.76560   2
 -12  -3  -1 1.36282 1.98513   3
  12   3   1 2.17509 2.56638   2
   9  -4  -1 5.42752 2.07031   2
   9  -4  -1 26.5795 41.7613   1
  -9   4   1 7.89868 2.27347   3
   8  -4  -1 -6.5154 27.9494   1
   8  -4  -1 8.77221 1.77817   2
  -8   4   1 21.5126 27.0378   1
  -8   4   1 9.61796 2.42303   3
   7  -4  -1 7.32958 20.3944   1
  -7   4   1 8.79116 18.7756   1
   6  -4  -1 3.39856 14.3671   1
   6  -4  -1 0.92643 1.02338   2
  -6   4   1 1.04120 1.38759   3
  -6   4   1 4.04047 15.4882   1
   5  -4  -1 141.580 5.08806   2
   5  -4  -1 111.155 18.9218   1
  -5   4   1 124.840 19.3865   1
  -5   4   1 133.912 5.44138   3
   4  -4  -1 2.48618 1.00633   2
   4  -4  -1 0.82518 8.24289   1
  -4   4   1 2.41635 9.91473   1
  -4   4   1 2.94820 1.00305   2
  -4   4   1 2.85084 1.14757   3
   3  -4  -1 356.052 22.5923   1
  -3   4   1 352.876 10.2015   2
  -3   4   1 355.657 10.6207   3
  -3   4   1 367.999 23.7256   1
   2  -4  -1 253.215 17.2313   1
   2  -4  -1 294.019 8.22853   2
  -2   4   1 286.707 18.5318   1
  -2   4   1 294.529 8.64831   3
  -2   4   1 285.146 8.20590   2
   1  -4  -1 40.5387 1.80104   2
  -1   4   1 39.9566 1.79611   2
  -1   4   1 38.6804 7.57552   1
   0  -4  -1 35.8485 5.95638   1
   0  -4  -1 43.9651 1.78398   2
   0   4   1 42.6288 6.57868   1
   0   4   1 44.5761 1.80388   2
  -1  -4  -1 33.8428 4.22828   1
  -1  -4  -1 43.0386 1.68167   2
   1   4   1 43.9099 1.65644   2
   1   4   1 47.6470 5.75320   1
   2   4   1 821.673 21.2192   2
   2   4   1 801.039 23.4591   1
   3   4   1 6581.13 169.330   1
   4   4   1 1228.72 35.5753   1
   4   4   1 1222.31 32.0372   2
  -5  -4  -1 52.8620 2.29905   3
   5   4   1 52.4235 2.37223   2
   5   4   1 48.6753 6.25310   1
  -6  -4  -1 181.634 5.90657   3
   6   4   1 185.786 5.99516   2
   6   4   1 202.784 13.7380   1
  -7  -4  -1 0.96098 0.90559   3
   7   4   1 5.70130 7.39151   1
   7   4   1 -0.0868 0.92688   2
   8   4   1 27.9397 9.78958   1
  -9  -4  -1 19.6977 2.15757   3
   9   4   1 19.0721 13.6965   1
   9   4   1 18.7620 2.05491   2
  10   4   1 -23.515 27.1415   1
 -11  -4  -1 12.7334 2.15086   3
  11   4   1 10.5046 2.13756   2
 -12  -4  -1 2.38308 1.87491   3
  12   4   1 4.22852 1.86881   2
   8  -5  -1 80.2745 39.0709   1
   8  -5  -1 44.7915 3.60430   2
  -8   5   1 55.9026 4.25146   3
  -8   5   1 -2.6307 63.7882   1
   7  -5  -1 -9.6872 24.0181   1
   7  -5  -1 -0.8199 1.29801   2
  -7   5   1 5.83469 26.8655   1
  -7   5   1 -0.3939 1.36017   3
   6  -5  -1 -5.5252 18.0478   1
   6  -5  -1 4.98860 1.38672   2
  -6   5   1 7.56614 1.93254   3
  -6   5   1 -0.6990 17.0429   1
   5  -5  -1 -16.312 13.9306   1
   5  -5  -1 1.64361 1.17733   2
  -5   5   1 1.68741 1.24552   3
  -5   5   1 0.64168 0.97078   2
  -5   5   1 2.42839 13.3139   1
   4  -5  -1 2.47272 1.03665   2
   4  -5  -1 5.69121 11.3724   1
  -4   5   1 16.7095 11.3496   1
  -4   5   1 3.96513 1.52622   3
  -4   5   1 2.73633 1.08357   2
   3  -5  -1 12.7222 1.35773   2
   3  -5  -1 19.4800 9.31629   1
  -3   5   1 14.0869 1.67506   3
  -3   5   1 16.8798 1.66217   2
  -3   5   1 15.1858 9.72054   1
   2  -5  -1 311.553 20.1405   1
   2  -5  -1 282.995 8.78745   2
  -2   5   1 292.342 21.6030   1
  -2   5   1 290.407 8.43378   2
   1  -5  -1 47.1396 2.03381   2
  -1   5   1 46.0784 9.57935   1
  -1   5   1 42.0700 1.95526   2
   0  -5  -1 145.504 11.0415   1
   0  -5  -1 134.384 4.16172   2
   0   5   1 139.808 11.7066   1
   0   5   1 134.205 4.13860   2
  -1  -5  -1 576.158 20.4796   1
  -1  -5  -1 569.531 14.9372   2
   1   5   1 568.479 21.9366   1
   1   5   1 537.586 14.8703   2
  -2  -5  -1 990.157 25.2420   2
   2   5   1 952.087 29.6439   1
   2   5   1 952.852 25.2102   2
   3   5   1 5.88421 1.86049   1
   3   5   1 2.79405 0.67160   2
   4   5   1 264.530 7.58275   2
   4   5   1 257.697 9.37653   1
   4   5   1 270.903 7.58305   2
   5   5   1 213.573 6.68302   2
   5   5   1 234.534 11.1774   1
  -6  -5  -1 30.9768 1.99625   3
   6   5   1 32.7113 6.50392   1
   6   5   1 31.5631 2.09140   2
  -7  -5  -1 10.8515 1.43348   3
   7   5   1 11.1090 11.4458   1
   7   5   1 9.64700 1.34514   2
  -8  -5  -1 46.1211 2.74768   3
   8   5   1 44.1189 2.84796   2
   8   5   1 57.1410 11.2695   1
  -9  -5  -1 12.0121 1.93572   3
   9   5   1 15.1663 1.91125   2
   9   5   1 30.6242 12.4157   1
 -10  -5  -1 10.3520 2.05442   3
  10   5   1 6.57588 2.54625   2
 -11  -5  -1 -0.2081 1.38358   3
  11   5   1 1.40770 1.35190   2
 -12  -5  -1 0.37321 1.61359   3
  12   5   1 1.09788 1.63027   2
  -8   6   1 26.7677 49.1994   1
   7  -6  -1 16.9319 32.4302   1
  -7   6   1 44.7428 31.6887   1
   6  -6  -1 17.5435 2.57700   2
   6  -6  -1 -11.065 21.8236   1
  -6   6   1 14.2116 26.9813   1
  -6   6   1 17.1845 2.73094   3
   5  -6  -1 1.14817 1.03132   2
   5  -6  -1 7.13238 15.2665   1
  -5   6   1 -9.1240 17.0107   1
  -5   6   1 1.00923 1.34550   3
   4  -6  -1 25.8480 2.19343   2
   4  -6  -1 23.1579 15.3320   1
  -4   6   1 25.6099 2.23055   2
  -4   6   1 20.3239 13.3532   1
  -4   6   1 26.7640 2.58224   3
   3  -6  -1 85.0331 3.53691   2
   3  -6  -1 68.4464 14.0513   1
  -3   6   1 86.1457 3.55582   2
  -3   6   1 87.0456 4.13177   3
  -3   6   1 60.0490 15.1866   1
   2  -6  -1 10.6204 7.97293   1
   2  -6  -1 12.9754 1.39488   2
  -2   6   1 7.16109 9.36349   1
  -2   6   1 12.3122 1.25739   2
   1  -6  -1 372.419 21.2760   1
   1  -6  -1 388.037 10.9068   2
  -1   6   1 406.772 23.8203   1
  -1   6   1 387.000 10.8917   2
   0  -6  -1 13.4637 5.76410   1
   0  -6  -1 12.4137 1.23685   2
   0   6   1 13.4239 1.20533   2
   0   6   1 10.9671 6.70967   1
  -1  -6  -1 3.61747 3.80640   1
  -1  -6  -1 1.64355 0.58547   2
   1   6   1 -1.1070 4.73573   1
   1   6   1 1.87099 0.60639   2
  -2  -6  -1 361.098 12.0773   1
  -2  -6  -1 365.896 10.0433   2
  -2  -6  -1 352.756 12.0668   1
   2   6   1 385.408 10.0658   2
   3   6   1 35.1659 1.66088   2
   3   6   1 35.6768 4.23349   1
   4   6   1 584.601 15.9680   2
   4   6   1 602.763 17.6142   1
   5   6   1 1651.41 45.8621   1
   5   6   1 1662.06 45.7426   1
   5   6   1 1613.90 42.8749   2
   6   6   1 84.0020 7.94169   1
   6   6   1 82.7825 8.10112   1
   6   6   1 72.7482 3.16932   2
   7   6   1 0.80757 0.96580   2
   7   6   1 3.70888 5.99292   1
   7   6   1 -0.9077 5.30243   1
  -8  -6  -1 6.69290 1.42468   3
   8   6   1 4.75371 1.33357   2
   8   6   1 14.2389 8.52009   1
  -9  -6  -1 1.04998 1.15740   3
   9   6   1 -1.6543 0.96461   2
   9   6   1 -5.0609 10.1098   1
 -10  -6  -1 27.3281 2.74136   3
  10   6   1 28.1573 4.15872   2
  10   6   1 34.6021 16.9776   1
 -11  -6  -1 1.99199 1.65038   3
  11   6   1 7.49717 1.74665   2
  11   6   1 -3.3581 17.8116   1
  12   6   1 29.7700 30.1778   1
   7  -7  -1 -3.9795 1.29291   2
  -7   7   1 -1.4138 1.61871   3
  -7   7   1 6.66466 49.1864   1
   6  -7  -1 8.42192 1.73261   2
   6  -7  -1 -70.506 30.3166   1
  -6   7   1 7.05268 2.20562   3
  -6   7   1 35.2659 30.6664   1
   5  -7  -1 2.19402 1.27095   2
   5  -7  -1 -2.6897 20.4701   1
  -5   7   1 2.42079 1.66782   3
  -5   7   1 13.8294 24.4683   1
   4  -7  -1 -7.1501 16.0164   1
  -4   7   1 6.46514 1.74913   3
  -4   7   1 -7.3833 16.1027   1
   3  -7  -1 10.4904 11.7566   1
   3  -7  -1 4.75956 1.18713   2
  -3   7   1 -22.395 22.6278   1
  -3   7   1 6.05954 1.18368   2
  -3   7   1 4.47905 1.64498   3
   2  -7  -1 122.963 4.35130   2
  -2   7   1 117.538 4.34456   2
  -2   7   1 100.708 16.9402   1
   1  -7  -1 16.7172 8.91330   1
  -1   7   1 13.1440 1.36307   2
  -1   7   1 12.7593 9.49543   1
   0  -7  -1 125.446 4.11774   2
   0  -7  -1 112.308 12.6791   1
   0   7   1 117.687 14.7030   1
  -1  -7  -1 0.69145 4.74106   1
  -1  -7  -1 6.65463 0.90057   2
   1   7   1 4.58992 0.82077   2
   1   7   1 1.99518 5.68715   1
  -2  -7  -1 4.81986 2.96266   1
  -2  -7  -1 3.88658 2.86423   1
  -2  -7  -1 9.39091 0.99726   2
   2   7   1 7.19445 5.18932   1
   2   7   1 9.49410 0.95205   2
   3   7   1 2.71802 0.69934   2
   3   7   1 3.95707 3.81209   1
   4   7   1 210.262 9.35604   1
   4   7   1 216.580 6.37547   2
   5   7   1 60.0975 4.44204   1
   5   7   1 56.6545 2.51088   2
   5   7   1 50.9862 2.61255   2
   6   7   1 -0.6012 0.74321   2
   6   7   1 0.44161 0.77701   2
   6   7   1 0.89424 3.29731   1
   6   7   1 1.46567 3.59907   1
   7   7   1 155.824 11.4955   1
   7   7   1 157.441 11.9436   1
   7   7   1 166.104 5.61374   2
   8   7   1 21.1591 8.08241   1
   8   7   1 1.19622 6.72361   1
   8   7   1 8.98814 1.47873   2
   9   7   1 5.14524 9.07219   1
   9   7   1 -6.3416 9.65646   1
   9   7   1 1.18657 1.10128   2
  10   7   1 -17.955 13.9849   1
  10   7   1 0.35807 1.95106   2
  10   7   1 0.11553 12.0395   1
  11   7   1 23.6021 17.3248   1
  12   7   1 15.1097 26.3788   1
  12   7   1 7.49434 1.82830   2
  -6   8   1 -58.130 65.1987   1
   5  -8  -1 -2.5825 31.2703   1
   5  -8  -1 -1.5543 1.02403   2
  -5   8   1 -0.0668 1.68771   3
  -5   8   1 5.50006 28.3020   1
   4  -8  -1 -0.5102 1.02534   2
   4  -8  -1 -3.1462 21.6526   1
  -4   8   1 1.18910 1.37252   3
  -4   8   1 -17.255 20.7564   1
   3  -8  -1 5.98086 1.28278   2
  -3   8   1 3.60300 1.63361   3
  -3   8   1 5.63221 1.20454   2
   2  -8  -1 24.2500 13.2853   1
   2  -8  -1 36.0204 2.33271   2
  -2   8   1 28.4830 2.24526   2
  -2   8   1 32.6513 15.5905   1
  -2   8   1 35.7579 2.91070   3
   1  -8  -1 105.853 15.3656   1
   1  -8  -1 113.020 4.11042   2
  -1   8   1 112.991 4.10853   2
  -1   8   1 106.491 16.7099   1
   0  -8  -1 10.1694 12.5552   1
   0  -8  -1 -0.7468 0.78867   2
   0   8   1 0.91662 9.12464   1
  -1  -8  -1 32.5738 1.95034   2
  -1  -8  -1 39.8543 7.70605   1
   1   8   1 35.6073 1.93422   2
   1   8   1 33.8238 9.71674   1
  -2  -8  -1 106.648 3.69351   2
  -2  -8  -1 107.600 7.64529   1
  -2  -8  -1 102.420 7.77172   1
   2   8   1 114.188 12.7286   1
   2   8   1 111.339 3.70158   2
   3   8   1 269.059 15.1868   1
   3   8   1 248.630 7.37415   2
   4   8   1 16.8806 4.60652   1
   4   8   1 15.4819 1.47247   2
   5   8   1 64.2083 4.97560   1
   5   8   1 67.8420 2.80228   2
   5   8   1 67.4420 2.94437   2
   6   8   1 10.5657 1.27222   2
   6   8   1 6.96350 1.13691   2
   7   8   1 88.6044 8.13152   1
   7   8   1 85.5474 3.65974   2
   7   8   1 83.4381 3.53151   2
   7   8   1 102.763 8.26503   1
   8   8   1 19.1605 6.94452   1
   8   8   1 6.63514 1.23322   2
   8   8   1 -0.0091 5.84502   1
   8   8   1 5.88952 1.28152   2
   9   8   1 33.6907 9.53091   1
   9   8   1 20.1310 10.5389   1
   9   8   1 32.6215 2.56860   2
  10   8   1 10.1064 11.8997   1
  10   8   1 -5.1885 12.8467   1
  11   8   1 1.15999 1.37747   2
  12   8   1 2.51529 1.71190   2
  12   8   1 8.98847 25.2077   1
   5  -9  -1 0.63078 1.28562   2
  -5   9   1 -1.9374 1.54146   3
   4  -9  -1 -36.517 24.8709   1
  -4   9   1 -1.4158 28.0736   1
  -4   9   1 0.80891 1.88559   3
   3  -9  -1 59.3228 3.22404   2
   3  -9  -1 20.9448 21.2129   1
  -3   9   1 100.175 33.3300   1
  -3   9   1 61.0127 4.18489   3
   2  -9  -1 38.1655 17.8624   1
   2  -9  -1 50.8976 2.79624   2
  -2   9   1 50.2861 3.67035   3
  -2   9   1 17.5392 18.2511   1
  -2   9   1 44.0748 2.63527   2
   1  -9  -1 30.3685 2.16471   2
   1  -9  -1 32.3046 14.5255   1
  -1   9   1 25.3850 2.03164   2
  -1   9   1 36.4697 16.0484   1
   0  -9  -1 40.2549 11.4256   1
   0  -9  -1 53.2608 2.56666   2
   0   9   1 68.9559 14.9180   1
   0   9   1 49.3699 2.45732   2
  -1  -9  -1 0.00507 7.10454   1
  -1  -9  -1 3.35917 1.09821   2
   1   9   1 1.75551 0.81484   2
   1   9   1 -3.1585 9.76167   1
  -2  -9  -1 14.3322 4.32038   1
  -2  -9  -1 15.5834 4.89639   1
   2   9   1 17.0188 1.46722   2
   2   9   1 13.1001 8.56489   1
   3   9   1 38.2514 1.94240   2
   3   9   1 38.5183 8.46321   1
   4   9   1 115.690 11.2138   1
   4   9   1 111.195 3.88648   2
   5   9   1 231.911 6.97147   2
   5   9   1 234.527 7.14367   2
   5   9   1 218.998 10.4018   1
   6   9   1 1.20114 0.93846   2
   6   9   1 0.36265 0.77504   2
   7   9   1 10.0692 1.41017   2
   7   9   1 9.28132 1.34068   2
   8   9   1 22.0283 2.15184   2
   8   9   1 26.4267 2.16092   2
   8   9   1 22.5150 5.05726   1
   8   9   1 28.2641 5.40362   1
   9   9   1 3.87697 7.15868   1
   9   9   1 3.76627 1.26706   2
   9   9   1 7.25915 8.16988   1
  10   9   1 -6.6978 14.0437   1
  10   9   1 4.41807 1.76833   2
  10   9   1 10.6164 10.7901   1
  11   9   1 5.05696 1.62523   2
  11   9   1 -7.8246 15.5802   1
  12   9   1 -4.1638 23.3498   1
  12   9   1 -2.7116 1.50296   2
   4 -10  -1 23.9147 2.36198   2
  -4  10   1 23.8262 3.50913   3
   3 -10  -1 14.7808 28.9299   1
  -3  10   1 -11.824 30.9352   1
   2 -10  -1 6.29271 1.33388   2
  -2  10   1 2.04463 1.63802   3
  -2  10   1 12.8121 24.3380   1
   1 -10  -1 1.48212 14.5305   1
  -1  10   1 14.0545 18.6547   1
   0 -10  -1 42.9385 13.1894   1
   0 -10  -1 38.5996 2.26675   2
   0  10   1 32.2085 2.14220   2
   0  10   1 22.8121 16.0475   1
  -1 -10  -1 7.37784 7.92785   1
  -1 -10  -1 15.7135 1.49286   2
  -1 -10  -1 20.6704 9.21845   1
   1  10   1 10.8865 12.4821   1
   1  10   1 14.3505 1.38396   2
  -2 -10  -1 8.07205 4.47227   1
   2  10   1 10.5177 10.2997   1
   3  10   1 2.68649 8.61579   1
   3  10   1 0.84531 0.68693   2
   4  10   1 0.49125 0.64792   2
   4  10   1 -6.3526 6.78278   1
   5  10   1 -5.0023 7.69376   1
   5  10   1 1.60078 0.93864   2
   5  10   1 1.85396 0.80671   2
   6  10   1 -1.5461 0.66659   2
   6  10   1 -0.1594 0.86362   2
   7  10   1 0.99376 0.90474   2
   7  10   1 -0.7828 0.76303   2
   8  10   1 5.68429 1.28539   2
   8  10   1 6.11716 1.25150   2
   9  10   1 218.193 7.42283   2
  10  10   1 7.15333 1.56491   2
  11  10   1 3.29735 1.43136   2
   3 -11  -1 5.38529 1.42067   2
  -3  11   1 4.38499 2.59088   3
   2 -11  -1 -12.053 28.2511   1
   2 -11  -1 1.70552 1.12378   2
  -2  11   1 1.44952 1.88483   3
  -2  11   1 17.9162 48.8404   1
   1 -11  -1 8.81921 19.6380   1
   1 -11  -1 45.3690 2.56400   2
  -1  11   1 8.68471 25.0787   1
  -1  11   1 33.5386 2.83242   2
   0 -11  -1 5.94690 14.3105   1
   0 -11  -1 2.59973 1.10588   2
   0  11   1 2.89002 1.11068   2
   0  11   1 25.4854 19.8176   1
  -1 -11  -1 0.66447 0.88792   2
  -1 -11  -1 -10.147 9.44545   1
   1  11   1 12.6753 15.8146   1
   1  11   1 1.83133 0.87237   2
   2  11   1 18.7666 14.0504   1
   2  11   1 18.3087 1.58131   2
   3  11   1 25.3578 12.0695   1
   3  11   1 9.67438 1.20375   2
   4  11   1 25.6445 9.78715   1
   4  11   1 21.2152 1.66588   2
   5  11   1 17.2097 7.04939   1
   5  11   1 6.56921 1.19354   2
   5  11   1 2.95489 0.87103   2
   6  11   1 0.10196 0.84885   2
   6  11   1 0.88947 0.79948   2
   7  11   1 9.32113 1.34589   2
   8  11   1 6.47990 1.25211   2
   9  11   1 -0.7537 0.95656   2
  10  11   1 31.2865 2.67899   2
  11  11   1 54.4513 3.59959   2
   1 -12  -1 71.5644 42.4738   1
   1 -12  -1 45.3856 2.72720   2
  -1  12   1 45.4800 4.27844   3
   0 -12  -1 0.65291 0.94542   2
   0 -12  -1 0.89202 18.9037   1
   0  12   1 10.0023 30.5010   1
  -1 -12  -1 22.6188 12.1896   1
  -1 -12  -1 40.2525 2.32851   2
   1  12   1 61.2132 23.4826   1
   1  12   1 36.5828 2.38278   2
   2  12   1 10.3644 18.3185   1
   2  12   1 6.17681 1.12518   2
   3  12   1 222.664 26.3099   1
   3  12   1 212.835 6.56147   2
   4  12   1 72.4674 2.94889   2
   4  12   1 57.7464 14.7504   1
   5  12   1 11.6403 1.44105   2
   5  12   1 8.21846 1.15428   2
   5  12   1 6.70402 9.48977   1
   6  12   1 29.9858 2.11314   2
   6  12   1 33.2280 2.26106   2
   7  12   1 6.64732 1.29234   2
   7  12   1 10.1164 1.37386   2
   8  12   1 -1.0085 0.87640   2
   9  12   1 3.04742 1.12874   2
  10  12   1 24.6784 2.37329   2
   2  13   1 22.4759 26.3036   1
   3  13   1 7.49116 21.7495   1
   4  13   1 2.99799 16.5858   1
   5  13   1 27.9433 13.5528   1
   5  13   1 24.1155 1.99799   2
   6  13   1 -0.9946 0.90063   2
   7  13   1 -2.3831 0.96363   2
   5  14   1 78.1529 3.23370   2
   6  14   1 -0.5076 1.03655   2
   7  14   1 27.7620 2.18418   2
   5  14  -2 -7.3067 31.5416   1
   9  13  -2 5.42773 1.25984   2
   8  13  -2 10.4196 1.30304   2
   5  13  -2 1.62208 16.9884   1
   4  13  -2 21.8229 20.1420   1
   2  13  -2 12.0471 28.9215   1
  10  12  -2 30.5229 3.02169   2
   9  12  -2 30.3984 2.31140   2
   8  12  -2 20.8424 2.00280   2
   7  12  -2 47.4685 9.68770   1
   7  12  -2 63.3682 2.61431   2
   7  12  -2 50.5631 2.45267   2
   6  12  -2 55.4008 11.8526   1
   6  12  -2 46.4689 2.16078   2
   5  12  -2 -6.8855 12.5019   1
   4  12  -2 14.8270 14.8953   1
   3  12  -2 -10.651 16.9192   1
   2  12  -2 4.81079 18.8836   1
   1  12  -2 30.3845 24.5721   1
  -1 -12   2 33.3340 14.0074   1
   0  12  -2 -25.221 28.5724   1
   0 -12   2 -9.3323 20.6833   1
  11  11  -2 0.31012 1.34695   2
  10  11  -2 15.1535 16.7339   1
   9  11  -2 19.2345 14.6322   1
   9  11  -2 20.3475 1.91015   2
   8  11  -2 3.22721 1.36522   2
   8  11  -2 14.6928 8.52859   1
   8  11  -2 2.11811 8.46413   1
   8  11  -2 3.15341 1.10095   2
   7  11  -2 5.51791 1.10336   2
   7  11  -2 19.1545 8.65865   1
   7  11  -2 8.16893 1.10710   2
   6  11  -2 -0.7751 8.96490   1
   6  11  -2 0.54785 0.67110   2
   6  11  -2 -1.3577 0.74862   2
   5  11  -2 5.29461 0.81660   2
   5  11  -2 7.50538 10.0359   1
   5  11  -2 3.64291 0.72980   2
   4  11  -2 7.26031 10.7241   1
   3  11  -2 -0.0558 11.9904   1
   2  11  -2 187.821 22.0891   1
  -2 -11   2 147.028 13.4193   1
   1  11  -2 16.3178 18.2677   1
  -1 -11   2 22.8365 11.3156   1
   0  11  -2 15.1254 20.9270   1
   0  11  -2 19.7391 1.50215   2
   0 -11   2 14.9995 1.36049   2
   0 -11   2 17.5064 15.8324   1
  -1  11  -2 67.6075 26.5346   1
   1 -11   2 23.4081 1.94090   2
   1 -11   2 15.8968 20.9451   1
  -2  11  -2 -6.6649 34.9740   1
   2 -11   2 8.77129 28.8949   1
  -3  11  -2 0.78951 1.65470   3
   3 -11   2 1.24523 1.05696   2
  11  10  -2 22.6978 20.4615   1
  10  10  -2 25.0069 14.8638   1
   9  10  -2 46.7180 15.5748   1
   9  10  -2 61.3874 3.15491   2
   9  10  -2 41.8362 12.2772   1
   8  10  -2 1.56905 0.99356   2
   8  10  -2 5.66232 8.72153   1
   7  10  -2 141.475 16.2866   1
   7  10  -2 142.213 4.75616   2
   7  10  -2 132.139 4.67205   2
   6  10  -2 28.8887 1.83182   2
   6  10  -2 28.0918 8.41750   1
   6  10  -2 28.2051 1.72631   2
   5  10  -2 57.5244 2.33622   2
   5  10  -2 75.5346 10.9195   1
   5  10  -2 59.8671 2.39009   2
   4  10  -2 52.6024 2.06137   2
   4  10  -2 56.4750 2.13759   2
   4  10  -2 57.3194 11.5190   1
   3  10  -2 36.6779 1.49340   2
   3  10  -2 19.3771 10.7622   1
   3  10  -2 32.0033 1.51009   2
   2  10  -2 22.3513 11.6313   1
   2  10  -2 0.49363 0.52218   2
  -2 -10   2 2.47225 6.37120   1
   1  10  -2 139.015 4.22258   2
   1  10  -2 138.149 20.2486   1
  -1 -10   2 147.138 17.6228   1
   0  10  -2 18.8863 1.39492   2
   0  10  -2 13.5240 15.7753   1
   0 -10   2 8.92770 12.8493   1
   0 -10   2 18.6273 1.45788   2
  -1  10  -2 14.4699 20.0407   1
  -1  10  -2 6.80999 1.07304   2
   1 -10   2 -4.1726 14.7154   1
  -2  10  -2 37.8311 24.6595   1
  -3  10  -2 8.56698 32.9391   1
  -3  10  -2 8.47198 2.21822   3
   3 -10   2 7.65397 1.34858   2
   3 -10   2 -20.051 26.3305   1
  -4  10  -2 10.5135 2.56969   3
   4 -10   2 8.20688 1.48335   2
  11   9  -2 9.33855 20.5467   1
  10   9  -2 2.51601 16.3462   1
  10   9  -2 6.60132 2.76921   2
   9   9  -2 80.4817 14.9455   1
   9   9  -2 76.9646 3.70597   2
   9   9  -2 69.8287 18.9943   1
   8   9  -2 17.1857 10.0698   1
   8   9  -2 18.7554 8.99424   1
   8   9  -2 22.2985 2.09641   2
   7   9  -2 81.5478 11.0502   1
   7   9  -2 82.9984 3.39034   2
   7   9  -2 88.7932 10.7480   1
   7   9  -2 86.0311 3.45582   2
   6   9  -2 7.85657 1.06712   2
   6   9  -2 11.7428 1.50870   2
   6   9  -2 11.9763 6.49150   1
   5   9  -2 7.88726 0.93730   2
   5   9  -2 7.39681 0.98033   2
   5   9  -2 16.2886 6.84320   1
   4   9  -2 6.81335 0.83875   2
   4   9  -2 2.07401 6.92462   1
   4   9  -2 8.44280 0.90748   2
   3   9  -2 129.126 3.83076   2
   3   9  -2 123.428 14.9467   1
   3   9  -2 126.150 3.85656   2
   2   9  -2 6.36510 8.90235   1
   2   9  -2 3.75800 0.63929   2
  -2  -9   2 5.50986 5.40509   1
   1   9  -2 2.63201 9.61263   1
  -1  -9   2 1.77491 7.74384   1
   0   9  -2 15.8241 12.4192   1
   0  -9   2 7.29298 9.45216   1
  -1   9  -2 219.032 24.6316   1
  -1   9  -2 179.801 5.62971   2
   1  -9   2 174.951 30.8324   1
  -2   9  -2 27.9701 1.94251   2
  -2   9  -2 29.9301 19.4437   1
   2  -9   2 10.9583 15.3243   1
   2  -9   2 27.8687 1.95062   2
  -3   9  -2 135.851 6.24158   3
  -3   9  -2 163.041 29.8441   1
  -3   9  -2 125.142 4.95674   2
   3  -9   2 135.871 4.82657   2
  -4   9  -2 0.99226 31.8809   1
  -4   9  -2 3.19992 1.86278   3
   4  -9   2 5.38505 23.5236   1
   4  -9   2 0.21230 0.98821   2
  -5   9  -2 48.1551 4.28275   3
  -5   9  -2 42.6769 62.0508   1
   5  -9   2 44.1114 3.17691   2
  12   8  -2 1.12910 1.64440   2
  11   8  -2 7.14305 21.0359   1
  11   8  -2 0.44088 1.37697   2
  10   8  -2 -0.6962 1.90569   2
  10   8  -2 -1.1401 14.5734   1
   9   8  -2 88.8042 4.06313   2
   9   8  -2 104.710 15.2131   1
   8   8  -2 35.0905 2.50394   2
   8   8  -2 32.9355 10.7233   1
   8   8  -2 27.3219 10.1248   1
   7   8  -2 193.511 6.11424   2
   7   8  -2 181.717 6.02867   2
   7   8  -2 176.866 15.7417   1
   7   8  -2 193.453 15.6981   1
   6   8  -2 27.5426 7.15428   1
   6   8  -2 24.0795 2.14540   2
   6   8  -2 27.8430 1.76791   2
   5   8  -2 0.36843 0.61420   2
   5   8  -2 -6.3555 4.88363   1
   5   8  -2 -0.3937 0.63708   2
   4   8  -2 2.13588 0.69248   2
   4   8  -2 0.71242 5.28674   1
   4   8  -2 2.24014 0.62349   2
   3   8  -2 51.6316 9.13460   1
   3   8  -2 40.7919 1.68545   2
   3   8  -2 42.7379 1.74427   2
  -3  -8   2 33.0728 4.03328   1
   2   8  -2 18.6183 1.11983   2
   2   8  -2 24.4887 15.3464   1
  -2  -8   2 13.3038 5.47251   1
   1   8  -2 3.18351 7.95964   1
  -1  -8   2 3.58416 6.21803   1
   0   8  -2 113.484 3.60690   2
   0   8  -2 115.961 15.8963   1
   0  -8   2 111.554 3.58267   2
  -1   8  -2 30.3059 11.5142   1
  -1   8  -2 20.0134 1.56460   2
   1  -8   2 18.0138 10.3573   1
   1  -8   2 19.4505 1.54052   2
  -2   8  -2 4.49095 1.00458   2
  -2   8  -2 23.1965 13.4916   1
   2  -8   2 3.29560 1.03298   2
   2  -8   2 6.59249 10.8243   1
  -3   8  -2 14.5406 1.49944   2
  -3   8  -2 16.2388 2.52053   3
  -3   8  -2 26.8545 20.0058   1
   3  -8   2 15.8571 15.3486   1
   3  -8   2 14.8073 1.57746   2
  -4   8  -2 0.10543 1.27084   3
  -4   8  -2 5.21304 20.6356   1
   4  -8   2 24.2430 17.5720   1
  -5   8  -2 43.7150 3.81336   3
  -5   8  -2 9.28453 29.0855   1
   5  -8   2 20.8780 28.1041   1
   5  -8   2 32.1879 2.61388   2
  -6   8  -2 51.0925 39.1888   1
  12   7  -2 1.38370 1.60921   2
 -12  -7   2 5.06053 2.23763   3
  11   7  -2 22.2981 20.9903   1
  10   7  -2 -29.129 16.9899   1
  10   7  -2 -11.366 14.3684   1
 -10  -7   2 2.72995 1.83592   3
   9   7  -2 0.87491 11.0287   1
   9   7  -2 0.60704 1.02990   2
   9   7  -2 -19.797 11.6606   1
  -9  -7   2 2.01111 1.40776   3
   8   7  -2 79.5551 3.57002   2
   8   7  -2 65.3910 12.1461   1
   8   7  -2 70.6749 12.1752   1
   7   7  -2 21.6028 7.53289   1
   7   7  -2 11.9010 1.50046   2
   7   7  -2 8.59770 7.87080   1
   6   7  -2 37.3947 7.11968   1
   6   7  -2 26.7133 2.24048   2
   5   7  -2 176.520 12.0561   1
   5   7  -2 166.402 5.22701   2
   5   7  -2 173.342 5.26930   2
   4   7  -2 157.193 11.3227   1
   4   7  -2 145.238 4.42158   2
   4   7  -2 144.138 4.42873   2
   3   7  -2 14.1538 1.06585   2
   3   7  -2 12.5350 0.98949   2
   3   7  -2 18.8103 5.58837   1
  -3  -7   2 14.3683 2.73869   1
   2   7  -2 1.70693 0.51129   2
   2   7  -2 -0.9932 5.19043   1
  -2  -7   2 2.09007 3.81797   1
   1   7  -2 583.490 15.3119   2
   1   7  -2 585.658 27.4454   1
  -1  -7   2 578.424 15.2998   2
  -1  -7   2 581.268 25.3412   1
   0   7  -2 288.636 7.95233   2
   0   7  -2 274.314 20.4691   1
   0  -7   2 288.474 7.95354   2
   0  -7   2 293.200 18.4118   1
  -1   7  -2 17.3653 9.18108   1
  -1   7  -2 28.5099 1.60168   2
   1  -7   2 25.8699 1.58022   2
   1  -7   2 26.3374 9.41391   1
  -2   7  -2 133.532 4.50306   2
  -2   7  -2 120.001 17.6791   1
   2  -7   2 144.248 5.60157   2
  -3   7  -2 20.9753 1.82433   2
  -3   7  -2 12.9035 13.7489   1
   3  -7   2 25.1680 14.1108   1
   3  -7   2 17.6109 1.62443   2
  -4   7  -2 15.6380 18.3229   1
   4  -7   2 6.28568 15.1403   1
  -5   7  -2 93.6065 5.02924   3
  -5   7  -2 141.029 26.3394   1
   5  -7   2 125.808 26.5792   1
   5  -7   2 98.0681 4.17522   2
  -6   7  -2 17.3013 28.5430   1
   6  -7   2 -21.130 28.6438   1
  -7   7  -2 3.55926 46.8560   1
  -7   7  -2 22.9879 3.35568   3
   7  -7   2 18.1389 2.12904   2
  12   6  -2 18.5126 2.53820   2
 -12  -6   2 12.9995 2.70980   3
  11   6  -2 3.31053 20.2988   1
 -11  -6   2 -2.1474 1.37231   3
  10   6  -2 5.13215 1.76987   2
  10   6  -2 -9.5008 16.1187   1
  10   6  -2 7.66351 14.3924   1
 -10  -6   2 2.35437 1.50505   3
   9   6  -2 17.9195 12.2540   1
   9   6  -2 11.3747 1.60441   2
   9   6  -2 -8.0914 10.7998   1
  -9  -6   2 11.5090 1.96075   3
   8   6  -2 80.8402 3.65426   2
   8   6  -2 62.7535 12.0443   1
   8   6  -2 76.0497 13.0333   1
  -8  -6   2 68.4482 3.77473   3
   7   6  -2 120.400 14.0985   1
   7   6  -2 120.315 4.65793   2
   7   6  -2 154.612 14.7479   1
  -7  -6   2 140.919 5.29919   3
   6   6  -2 11.8049 6.27816   1
   6   6  -2 2.66174 5.18472   1
   5   6  -2 81.7755 9.16919   1
   5   6  -2 80.8816 3.00523   2
   4   6  -2 22.6140 1.34076   2
   4   6  -2 25.1300 5.29044   1
   4   6  -2 23.0770 1.36790   2
   3   6  -2 3.01518 0.56118   2
   3   6  -2 4.17405 0.61011   2
  -3  -6   2 4.69767 2.24886   1
   2   6  -2 199.230 5.57270   2
   2   6  -2 219.215 13.0542   1
   1   6  -2 9.03294 0.75113   2
   1   6  -2 6.54684 5.08624   1
  -1  -6   2 7.78200 0.65390   2
  -1  -6   2 6.61492 4.45897   1
   0   6  -2 13.7354 1.01055   2
   0   6  -2 17.2690 6.83442   1
   0  -6   2 12.1447 0.97823   2
   0  -6   2 7.56543 5.59415   1
  -1   6  -2 98.7928 3.33995   2
  -1   6  -2 117.946 14.7463   1
   1  -6   2 106.890 3.35080   2
  -2   6  -2 78.6757 3.04167   2
  -2   6  -2 95.2803 14.6231   1
   2  -6   2 66.0464 12.2338   1
   2  -6   2 82.4013 2.99374   2
  -3   6  -2 45.0856 2.31728   2
  -3   6  -2 24.6176 19.4600   1
   3  -6   2 41.1653 2.33150   2
   3  -6   2 35.8714 11.6572   1
  -4   6  -2 5.65066 1.04986   2
  -4   6  -2 8.47048 2.84971   3
  -4   6  -2 -6.6850 12.3931   1
   4  -6   2 5.52556 1.19767   2
   4  -6   2 4.03237 16.0800   1
  -5   6  -2 26.1466 2.73001   3
  -5   6  -2 28.6526 2.26864   2
  -5   6  -2 38.0732 17.5523   1
   5  -6   2 32.2643 16.7454   1
   5  -6   2 27.2972 2.26829   2
  -6   6  -2 70.8660 4.24884   3
  -6   6  -2 49.6592 28.9776   1
   6  -6   2 94.4758 26.4361   1
   6  -6   2 71.6325 3.63968   2
  -7   6  -2 -49.060 29.0423   1
  -7   6  -2 -0.0735 1.51351   3
   7  -6   2 -2.1821 1.01933   2
   7  -6   2 -21.197 31.6521   1
  -8   6  -2 -47.768 44.1668   1
  -8   6  -2 3.23972 1.97648   3
   8  -6   2 1.05015 1.30679   2
  12   5  -2 8.08523 2.30908   2
 -12  -5   2 12.5489 2.79103   3
  11   5  -2 -21.125 21.1722   1
  11   5  -2 6.16122 1.90149   2
 -11  -5   2 4.97799 1.91766   3
  10   5  -2 -2.2587 17.1211   1
  10   5  -2 0.83619 1.33655   2
  10   5  -2 -3.4750 15.2338   1
 -10  -5   2 0.88300 1.51029   3
   9   5  -2 10.7244 11.2812   1
   9   5  -2 8.38897 13.5821   1
   9   5  -2 21.6318 2.26826   2
  -9  -5   2 26.0440 2.60704   3
   8   5  -2 0.42163 9.47975   1
   8   5  -2 0.96166 8.79530   1
   8   5  -2 0.35941 0.99492   2
  -8  -5   2 3.26130 1.31172   3
   7   5  -2 24.1179 2.16196   2
   7   5  -2 25.7492 8.99473   1
   7   5  -2 25.0709 8.04207   1
  -7  -5   2 24.2546 2.18805   3
   6   5  -2 68.6583 9.76972   1
   6   5  -2 58.7927 3.03823   2
   6   5  -2 56.6660 8.70143   1
  -6  -5   2 66.2997 3.11007   3
   5   5  -2 -4.4665 3.78835   1
   5   5  -2 0.71649 0.66847   2
  -5  -5   2 1.66829 0.99604   3
   4   5  -2 9.11434 0.88605   2
   4   5  -2 3.85625 3.73378   1
   3   5  -2 100.485 3.13016   2
   3   5  -2 102.479 3.13332   2
   3   5  -2 109.492 8.23015   1
   2   5  -2 163.642 10.3256   1
   2   5  -2 180.912 4.83188   2
   1   5  -2 56.1919 1.73405   2
   1   5  -2 49.4193 7.23328   1
  -1  -5   2 54.7522 1.74274   2
  -1  -5   2 59.2692 7.06322   1
   0   5  -2 82.6982 2.54286   2
   0   5  -2 84.0687 9.48874   1
   0  -5   2 82.3130 9.21933   1
   0  -5   2 81.8269 2.52898   2
  -1   5  -2 123.582 3.59184   2
  -1   5  -2 112.886 13.3457   1
   1  -5   2 109.462 3.51302   2
  -2   5  -2 84.9885 12.5427   1
  -2   5  -2 73.3411 2.76990   2
   2  -5   2 78.6212 2.80118   2
   2  -5   2 78.2664 12.0234   1
  -3   5  -2 332.166 9.57728   2
   3  -5   2 368.311 25.0779   1
   3  -5   2 325.671 9.87249   2
  -4   5  -2 61.4051 2.91107   2
  -4   5  -2 64.1836 3.38151   3
  -4   5  -2 75.3228 15.7355   1
   4  -5   2 56.7481 14.1363   1
   4  -5   2 63.2092 2.95759   2
  -5   5  -2 363.464 11.5920   2
  -5   5  -2 377.247 13.0370   3
  -5   5  -2 391.183 32.1392   1
   5  -5   2 380.673 32.6880   1
   5  -5   2 361.967 10.9085   2
  -6   5  -2 14.1072 2.04200   3
  -6   5  -2 7.14838 17.9802   1
   6  -5   2 20.7758 18.1382   1
   6  -5   2 9.52477 1.59309   2
  -7   5  -2 19.8701 25.2527   1
  -7   5  -2 10.4756 2.10206   3
   7  -5   2 -0.3037 25.0480   1
  -8   5  -2 18.5814 33.3947   1
  -8   5  -2 5.21561 1.96811   3
   8  -5   2 4.22689 1.59797   2
   8  -5   2 -29.148 35.2960   1
  12   4  -2 13.0184 3.22107   2
 -12  -4   2 13.2092 2.83245   3
  11   4  -2 26.7983 24.3169   1
  11   4  -2 31.3957 3.08233   2
 -11  -4   2 21.6705 2.89261   3
  10   4  -2 112.422 5.15428   2
  10   4  -2 69.0253 20.2822   1
  10   4  -2 105.521 23.3599   1
 -10  -4   2 111.140 5.40216   3
   9   4  -2 7.33484 12.3307   1
   9   4  -2 9.19988 13.5379   1
   9   4  -2 2.85840 1.41979   2
  -9  -4   2 3.85013 1.50291   3
   8   4  -2 51.2043 12.3515   1
   8   4  -2 56.6136 3.09386   2
   8   4  -2 41.1060 12.6135   1
  -8  -4   2 47.3818 3.06238   3
  -8  -4   2 45.1082 2.75528   2
   7   4  -2 12.2869 7.97589   1
   7   4  -2 21.2237 10.1969   1
   7   4  -2 11.9428 1.49769   2
  -7  -4   2 10.6616 1.23715   2
  -7  -4   2 17.6858 1.84550   3
   6   4  -2 77.0525 10.3836   1
   6   4  -2 80.6988 3.35884   2
   6   4  -2 82.7553 11.2908   1
  -6  -4   2 84.4698 3.32487   2
  -6  -4   2 86.8032 3.59575   3
   5   4  -2 3.05380 4.10731   1
   5   4  -2 3.68164 5.15915   1
   5   4  -2 6.51130 0.93979   2
  -5  -4   2 7.64181 1.10792   3
   4   4  -2 274.758 13.4904   1
   4   4  -2 274.124 7.59872   2
  -4  -4   2 261.887 7.96379   3
   3   4  -2 1.52146 3.05246   1
   3   4  -2 0.57558 0.53841   2
   2   4  -2 3.84378 2.97543   1
   2   4  -2 6.43269 0.57770   2
   2   4  -2 5.23078 0.52569   2
  -2  -4   2 7.86371 2.80072   1
   1   4  -2 22.4697 0.85138   2
   1   4  -2 19.2968 4.42131   1
  -1  -4   2 21.1013 4.34103   1
   0   4  -2 0.93194 4.00454   1
   0   4  -2 0.91266 0.40260   2
   0  -4   2 1.38852 0.38922   2
   0  -4   2 2.09832 2.95683   1
  -1   4  -2 638.733 16.6501   2
  -1   4  -2 658.502 27.1165   1
   1  -4   2 612.032 26.2223   1
   1  -4   2 628.259 16.6348   2
  -2   4  -2 656.439 17.0109   2
  -2   4  -2 623.180 28.7305   1
   2  -4   2 633.630 28.6784   1
   2  -4   2 634.822 16.9822   2
  -3   4  -2 -10.421 10.5744   1
  -3   4  -2 4.01211 1.55511   2
   3  -4   2 9.31098 7.37697   1
   3  -4   2 3.60295 0.82821   2
  -4   4  -2 1.48357 0.94367   3
  -4   4  -2 2.65503 9.05355   1
  -4   4  -2 1.01764 0.81459   2
   4  -4   2 0.97724 0.89439   2
   4  -4   2 7.17291 8.03331   1
  -5   4  -2 8.85049 11.7547   1
  -5   4  -2 4.71304 1.53819   3
  -5   4  -2 2.94902 1.13774   2
   5  -4   2 2.68722 1.03539   2
   5  -4   2 14.8840 11.4523   1
  -6   4  -2 5.13880 1.30655   2
  -6   4  -2 8.36537 2.38232   3
  -6   4  -2 10.1500 13.8258   1
   6  -4   2 -1.6471 13.7334   1
   6  -4   2 10.3045 1.55507   2
  -7   4  -2 2.02877 1.51904   3
  -7   4  -2 0.71207 19.6528   1
   7  -4   2 8.39976 21.5038   1
   7  -4   2 1.04912 1.27653   2
  -8   4  -2 49.1221 3.67856   3
  -8   4  -2 52.0669 27.9136   1
   8  -4   2 51.2808 3.45905   2
   8  -4   2 46.4790 28.0543   1
  -9   4  -2 -1.5186 1.50203   3
   9  -4   2 -44.192 41.2675   1
   9  -4   2 -3.1734 1.29284   2
  12   3  -2 -0.8157 1.92058   2
 -12  -3   2 1.07045 1.89151   3
  11   3  -2 -5.4866 23.2440   1
  11   3  -2 7.65542 2.09062   2
 -11  -3   2 4.68708 1.90277   3
  10   3  -2 114.217 21.8836   1
  10   3  -2 154.500 29.7889   1
  10   3  -2 164.828 6.65109   2
 -10  -3   2 165.742 6.90013   3
   9   3  -2 19.6631 15.8077   1
   8   3  -2 70.5550 3.66546   2
   8   3  -2 72.6677 15.3942   1
  -8  -3   2 57.6100 3.57351   2
  -8  -3   2 66.7371 3.61725   3
   7   3  -2 17.2454 11.8151   1
   7   3  -2 25.1847 2.29698   2
  -7  -3   2 25.9957 2.23952   3
  -7  -3   2 22.2400 2.02417   2
   6   3  -2 -1.0548 6.33363   1
   6   3  -2 3.27422 1.04742   2
  -6  -3   2 1.50903 1.01498   3
  -6  -3   2 2.24833 0.89781   2
   5   3  -2 9.95221 4.96329   1
   5   3  -2 9.92853 1.36501   2
  -5  -3   2 10.4083 1.38247   3
  -5  -3   2 7.30366 0.93183   2
   4   3  -2 1541.02 48.3474   1
   4   3  -2 1568.40 48.4366   1
   4   3  -2 1540.84 40.4223   2
  -4  -3   2 1551.05 40.7219   3
  -4  -3   2 1573.82 40.4200   2
   3   3  -2 114.259 3.46643   2
   3   3  -2 112.948 7.93861   1
  -3  -3   2 110.426 3.78766   3
  -3  -3   2 115.991 3.47788   2
   2   3  -2 276.088 7.22707   2
   2   3  -2 284.556 11.6804   1
  -2  -3   2 248.787 10.6707   1
   1   3  -2 595.127 20.5703   1
  -1  -3   2 603.784 20.1863   1
   0   3  -2 51.9231 1.53167   2
   0   3  -2 51.4481 6.20936   1
   0  -3   2 51.2246 1.51727   2
  -1   3  -2 404.601 18.7679   1
  -1   3  -2 389.726 10.5538   2
   1  -3   2 391.814 18.1454   1
   1  -3   2 409.284 10.5642   2
  -2   3  -2 907.750 34.8307   1
  -2   3  -2 899.425 23.3976   2
   2  -3   2 882.599 34.2685   1
   2  -3   2 884.726 23.3705   2
  -3   3  -2 -3.1215 6.41419   1
  -3   3  -2 0.49889 0.81385   3
  -3   3  -2 0.83444 0.65690   2
   3  -3   2 0.54377 0.65687   2
   3  -3   2 1.99714 5.33152   1
  -4   3  -2 2.36916 0.81418   2
  -4   3  -2 -4.2418 7.12898   1
  -4   3  -2 0.66276 0.83970   3
   4  -3   2 1.42645 0.86042   2
   4  -3   2 0.42250 6.98407   1
  -5   3  -2 300.028 8.89764   2
  -5   3  -2 300.058 24.4623   1
  -5   3  -2 288.623 9.11050   3
   5  -3   2 283.818 23.5079   1
   5  -3   2 297.426 8.86965   2
  -6   3  -2 3.22259 10.9877   1
  -6   3  -2 1.00723 1.12903   3
   6  -3   2 -7.6780 11.8560   1
   6  -3   2 1.86197 1.07222   2
  -7   3  -2 23.2921 3.15726   3
  -7   3  -2 6.13509 15.3109   1
   7  -3   2 21.8004 2.15232   2
   7  -3   2 31.7736 17.3349   1
  -8   3  -2 -37.576 21.9630   1
  -8   3  -2 2.45130 1.41933   3
   8  -3   2 33.8948 22.4022   1
   8  -3   2 2.35306 1.55313   2
  -9   3  -2 32.3492 30.5176   1
   9  -3   2 19.8253 30.8384   1
 -10   3  -2 15.4487 2.61210   3
  10  -3   2 12.1603 2.25270   2
  11   2  -2 0.48004 1.90199   2
  11   2  -2 -39.520 30.9978   1
 -11  -2   2 1.66600 1.85873   3
  10   2  -2 32.6522 23.0096   1
  10   2  -2 23.1864 2.68301   2
 -10  -2   2 26.4614 3.08546   3
   9   2  -2 158.579 24.7480   1
   9   2  -2 180.940 6.85513   2
  -9  -2   2 181.754 7.06296   3
   8   2  -2 184.743 6.43350   2
   8   2  -2 162.544 21.8803   1
  -8  -2   2 166.791 6.53218   3
   7   2  -2 38.5242 12.3384   1
   7   2  -2 35.1368 2.66790   2
  -7  -2   2 32.0062 2.27464   2
  -7  -2   2 32.7974 2.45522   3
   6   2  -2 303.166 9.08613   2
   6   2  -2 279.686 20.7429   1
  -6  -2   2 309.168 9.32119   3
  -6  -2   2 309.185 9.05951   2
   5   2  -2 340.125 19.0403   1
   5   2  -2 309.424 9.30966   2
  -5  -2   2 326.009 9.26857   2
  -5  -2   2 322.689 9.47634   3
   4   2  -2 266.870 15.0692   1
   4   2  -2 265.737 7.53196   2
  -4  -2   2 263.225 7.69370   3
  -4  -2   2 255.130 7.49612   2
   3   2  -2 1910.85 56.3006   1
   3   2  -2 1912.51 49.3576   2
  -3  -2   2 1926.59 49.3625   2
  -3  -2   2 1897.35 49.5628   3
   2   2  -2 23.5329 3.73237   1
   2   2  -2 27.6446 1.14547   2
  -2  -2   2 27.6650 1.35769   3
  -2  -2   2 28.6562 1.18358   2
   1   2  -2 427.035 10.7971   2
   1   2  -2 404.512 14.7828   1
  -1  -2   2 429.800 10.7998   2
  -1  -2   2 402.006 14.4330   1
   0   2  -2 8.94967 2.90921   1
  -1   2  -2 3.87526 0.45728   2
  -1   2  -2 3.54545 3.25732   1
   1  -2   2 -3.9655 2.50852   1
   1  -2   2 4.77848 0.47731   2
  -2   2  -2 205.799 13.2608   1
  -2   2  -2 199.104 5.59273   2
   2  -2   2 209.819 13.1098   1
   2  -2   2 189.635 5.55972   2
  -3   2  -2 239.926 6.80909   2
  -3   2  -2 210.945 18.7907   1
   3  -2   2 229.442 18.6356   1
   3  -2   2 240.452 6.79272   2
  -4   2  -2 140.583 14.1962   1
  -4   2  -2 127.176 4.28765   3
  -4   2  -2 125.811 4.17323   2
   4  -2   2 117.013 13.1541   1
   4  -2   2 116.255 4.59278   2
  -5   2  -2 -12.322 6.99312   1
  -5   2  -2 0.34376 0.73944   2
  -5   2  -2 1.84962 1.03626   3
   5  -2   2 -0.4196 7.60136   1
   5  -2   2 2.09424 0.97782   2
  -6   2  -2 -0.6612 0.86198   3
  -6   2  -2 1.21355 10.0411   1
  -6   2  -2 1.16323 0.87769   2
   6  -2   2 -2.8638 10.3680   1
   6  -2   2 -2.2769 0.87526   2
  -7   2  -2 49.3420 3.05470   3
   7  -2   2 61.7813 16.5897   1
   7  -2   2 52.5933 3.16928   2
  -8   2  -2 52.6875 19.0593   1
  -8   2  -2 62.3419 3.63156   3
   8  -2   2 61.1208 3.59760   2
   8  -2   2 57.4673 19.9405   1
  -9   2  -2 1.79400 1.39299   3
  -9   2  -2 -3.9663 26.9044   1
   9  -2   2 -1.1759 1.27365   2
   9  -2   2 7.87466 25.2182   1
 -10   2  -2 -0.4695 1.57143   3
  10  -2   2 -11.368 40.1926   1
  10  -2   2 -3.9059 1.28187   2
  11   1  -2 2.43399 1.75253   2
 -11  -1   2 2.80465 1.90416   3
  10   1  -2 30.7978 29.0820   1
   9   1  -2 10.7929 2.04042   2
   9   1  -2 10.5781 19.6814   1
  -9  -1   2 11.2775 2.05027   3
   8   1  -2 83.3125 18.7291   1
   8   1  -2 87.1999 4.28799   2
  -8  -1   2 90.6691 5.15080   3
   7   1  -2 0.89968 1.13431   2
   7   1  -2 1.78867 10.5685   1
  -7  -1   2 -1.0732 1.02109   3
  -7  -1   2 -1.0612 0.68921   2
   6   1  -2 147.731 17.8621   1
   6   1  -2 152.014 5.43025   2
  -6  -1   2 161.348 5.62881   3
  -6  -1   2 165.572 5.47127   2
   5   1  -2 471.822 24.9529   1
  -5  -1   2 505.675 14.0601   3
  -5  -1   2 503.789 13.8227   2
   4   1  -2 2085.09 53.5452   2
   4   1  -2 2132.00 64.8703   1
  -4  -1   2 2011.21 53.5188   2
  -4  -1   2 2038.29 53.7217   3
   3   1  -2 3664.33 100.566   1
   3   1  -2 3507.81 92.0141   2
  -3  -1   2 3578.62 92.0073   2
   2   1  -2 125.989 8.14062   1
   2   1  -2 135.115 3.91120   2
  -2  -1   2 136.977 3.90192   2
  -2  -1   2 137.725 4.03923   3
   1   1  -2 706.719 18.6582   2
   1   1  -2 741.218 22.5788   1
  -1  -1   2 718.766 18.8337   3
  -1  -1   2 728.323 18.6604   2
   0   1  -2 3215.55 84.4911   1
   0  -1   2 3084.35 84.5043   1
  -1   1  -2 3809.81 101.829   1
   1  -1   2 3704.27 101.653   1
  -2   1  -2 206.222 5.60662   2
  -2   1  -2 193.171 11.4664   1
   2  -1   2 194.044 5.58419   2
   2  -1   2 213.822 11.7681   1
  -3   1  -2 2335.47 58.3933   2
  -3   1  -2 2338.94 58.4326   3
  -3   1  -2 2111.84 80.4980   1
   3  -1   2 2150.78 74.1238   1
   3  -1   2 2306.39 58.3887   2
  -4   1  -2 1446.90 37.7933   2
  -4   1  -2 1452.39 50.2267   1
  -4   1  -2 1426.54 38.1486   3
   4  -1   2 1470.86 37.7434   2
   4  -1   2 1413.15 49.9021   1
  -5   1  -2 70.6162 3.04838   2
  -5   1  -2 81.3571 3.13803   3
  -5   1  -2 68.6047 11.4518   1
   5  -1   2 79.3261 3.26528   2
   5  -1   2 82.6879 12.3915   1
  -6   1  -2 81.5530 3.40451   3
  -6   1  -2 56.7695 12.0115   1
  -6   1  -2 75.5148 3.30826   2
   6  -1   2 62.3709 13.0252   1
   6  -1   2 75.7520 3.41933   2
  -7   1  -2 25.7957 12.0129   1
  -7   1  -2 24.8536 2.20565   2
  -7   1  -2 28.5757 2.26852   3
   7  -1   2 31.4213 2.57208   2
   7  -1   2 43.3028 15.7086   1
  -8   1  -2 36.3496 2.74978   3
  -8   1  -2 59.8105 17.9673   1
   8  -1   2 39.6577 3.04020   2
   8  -1   2 72.1235 20.0491   1
  -9   1  -2 1.59976 18.3448   1
  -9   1  -2 -0.6854 1.18545   3
   9  -1   2 -4.1058 22.9150   1
   9  -1   2 -1.0990 1.19248   2
 -10   1  -2 6.24965 1.80489   3
  10  -1   2 -3.0908 30.7030   1
  10  -1   2 2.40418 1.60468   2
 -11   1  -2 2.64270 1.98209   3
  11  -1   2 -0.1874 1.65890   2
  11   0  -2 1.91035 1.72855   2
 -11   0   2 1.36852 1.82764   3
  10   0  -2 24.7848 32.4745   1
   9   0  -2 36.2602 23.4837   1
   9   0  -2 39.9408 3.34350   2
  -9   0   2 41.7534 3.37973   3
   8   0  -2 -2.4240 16.4896   1
   8   0  -2 0.57006 1.20415   2
  -8   0   2 2.84497 1.38260   3
   7   0  -2 206.882 24.1990   1
   7   0  -2 206.292 6.96557   2
  -7   0   2 197.999 7.12118   3
   6   0  -2 -2.8169 8.25557   1
   6   0  -2 -0.0866 0.95772   2
  -6   0   2 -4.0507 6.76762   1
  -6   0   2 -0.4833 0.91660   3
  -6   0   2 1.65469 0.96018   2
   5   0  -2 9.88507 7.49176   1
   5   0  -2 10.4237 1.23973   2
  -5   0   2 11.6759 1.27395   2
  -5   0   2 9.45729 6.78151   1
  -5   0   2 11.3946 1.49559   3
   4   0  -2 20.7708 1.62145   2
   4   0  -2 16.1797 6.70650   1
  -4   0   2 19.0192 6.54653   1
  -4   0   2 20.3816 1.84049   2
  -4   0   2 21.9456 1.58408   3
   3   0  -2 14.1129 1.29546   2
   3   0  -2 12.8875 5.63665   1
  -3   0   2 11.7706 6.25266   1
  -3   0   2 12.9137 1.27500   2
  -3   0   2 11.1264 1.21742   3
   2   0  -2 117.205 8.55003   1
   2   0  -2 116.599 3.47508   2
  -2   0   2 111.223 3.44940   2
   1   0  -2 6998.29 183.588   1
   0   0  -2 4059.07 106.822   1
  -1   0  -2 196.839 8.42025   1
   1   0   2 189.961 8.39043   1
  -2   0  -2 634.605 16.1802   2
  -2   0  -2 613.037 16.0320   3
  -2   0  -2 594.349 21.2916   1
   2   0   2 616.071 16.1606   2
   2   0   2 622.237 21.7686   1
  -3   0  -2 276.164 7.79716   2
  -3   0  -2 287.592 7.70256   3
   3   0   2 275.074 14.8737   1
   3   0   2 281.078 7.83120   2
  -4   0  -2 72.3490 2.71068   3
  -4   0  -2 86.5177 9.89463   1
  -4   0  -2 91.4123 3.23832   2
   4   0   2 70.2901 2.86946   2
   4   0   2 67.7710 9.26217   1
  -5   0  -2 164.171 14.0487   1
  -5   0  -2 139.151 4.55242   3
   5   0   2 133.283 4.72531   2
   5   0   2 135.330 13.1673   1
  -6   0  -2 12.9854 1.50294   2
  -6   0  -2 1.42098 7.13441   1
  -6   0  -2 14.2415 1.59495   3
   6   0   2 8.07023 8.40442   1
   6   0   2 11.0027 1.41489   2
  -7   0  -2 2.61177 1.16310   3
  -7   0  -2 -1.7316 8.52842   1
  -7   0  -2 2.75970 1.50619   2
   7   0   2 -1.4249 9.50629   1
   7   0   2 2.07682 1.15849   2
  -8   0  -2 14.8762 11.0939   1
   8   0   2 5.00054 13.2029   1
  -9   0  -2 4.42115 17.0234   1
   9   0   2 6.00539 17.3469   1
 -10   0  -2 25.9960 2.77619   3
 -10   0  -2 34.2219 24.9174   1
  10   0   2 21.4385 2.64928   2
  10   0   2 45.2828 44.6230   1
 -11   0  -2 -0.1340 1.43912   3
  11   0   2 -0.9978 1.64335   2
  10  -1  -2 1.58739 1.80496   2
  10  -1  -2 28.2348 36.1214   1
 -10   1   2 7.12364 2.42404   3
   9  -1  -2 0.97088 1.33991   2
   9  -1  -2 3.09319 26.2395   1
  -9   1   2 2.00512 1.66815   3
   8  -1  -2 -8.3972 17.0257   1
   7  -1  -2 -6.9757 13.9697   1
   7  -1  -2 0.83097 1.20109   2
  -7   1   2 0.17920 1.13187   3
   6  -1  -2 111.736 4.48826   2
   6  -1  -2 104.088 17.1569   1
  -6   1   2 117.871 4.55766   2
  -6   1   2 112.124 4.67772   3
  -6   1   2 101.272 15.1431   1
   5  -1  -2 5.12783 1.14469   2
   5  -1  -2 9.10770 7.64102   1
  -5   1   2 3.99820 0.97253   2
  -5   1   2 -3.8881 6.71731   1
  -5   1   2 5.52046 1.34184   3
   4  -1  -2 26.4818 7.61259   1
   4  -1  -2 21.0848 1.68428   2
  -4   1   2 21.9130 1.68680   3
  -4   1   2 32.8749 2.15305   2
  -4   1   2 24.4336 7.68554   1
   3  -1  -2 16.7461 9.55684   1
   3  -1  -2 15.5456 1.39992   2
  -3   1   2 15.6335 1.39709   2
  -3   1   2 14.9554 1.35831   3
   2  -1  -2 15.5442 4.93781   1
   2  -1  -2 18.6265 1.21376   2
  -2   1   2 14.6554 4.81739   1
  -2   1   2 19.2898 1.23883   2
  -2   1   2 18.1553 1.22226   3
   1  -1  -2 650.169 22.7815   1
  -1   1   2 667.902 17.2842   2
  -1   1   2 666.121 23.0164   1
  -1   1   2 658.660 17.3689   3
   0  -1  -2 106.255 3.08640   2
   0  -1  -2 112.811 5.87517   1
   0   1   2 109.435 3.08446   3
   0   1   2 107.872 5.88364   1
   0   1   2 109.207 3.08809   2
  -1  -1  -2 253.875 9.25646   1
   1   1   2 321.262 7.58507   2
   1   1   2 259.932 9.44246   1
  -3  -1  -2 17.6720 0.90806   3
  -3  -1  -2 21.5496 5.29166   1
   3   1   2 16.4922 1.16486   2
   3   1   2 11.5561 3.79164   1
  -4  -1  -2 608.740 16.0619   2
  -4  -1  -2 596.700 15.8587   3
  -4  -1  -2 570.694 23.7191   1
   4   1   2 582.941 16.0293   2
   4   1   2 622.162 24.4763   1
  -5  -1  -2 190.460 6.16581   3
  -5  -1  -2 197.658 5.99255   2
  -5  -1  -2 189.520 14.3212   1
   5   1   2 191.982 14.5236   1
   5   1   2 192.558 6.07407   2
  -6  -1  -2 653.399 29.9839   1
  -6  -1  -2 606.852 17.3101   2
  -6  -1  -2 638.859 17.2555   3
   6   1   2 630.223 30.7799   1
   6   1   2 628.001 17.3454   2
  -7  -1  -2 20.4176 1.98203   2
  -7  -1  -2 22.0179 9.43420   1
  -7  -1  -2 19.5434 1.79898   3
   7   1   2 9.37364 10.4191   1
   7   1   2 16.6170 1.85620   2
  -8  -1  -2 14.3722 1.71563   3
  -8  -1  -2 5.98652 10.8542   1
   8   1   2 27.7895 14.1956   1
   8   1   2 12.5885 1.54523   2
  -9  -1  -2 -9.8466 13.8333   1
  -9  -1  -2 -1.4896 0.98545   3
   9   1   2 6.06722 15.1741   1
   9   1   2 -0.2094 1.22939   2
 -10  -1  -2 0.88636 1.43555   3
 -10  -1  -2 -1.1548 19.3761   1
  10   1   2 -5.0885 34.7389   1
  10   1   2 -0.4770 1.47519   2
 -11  -1  -2 -0.6663 1.39712   3
  11   1   2 -1.3455 1.51286   2
  10  -2  -2 60.0891 5.38305   2
 -10   2   2 49.4672 4.42524   3
   9  -2  -2 0.46497 1.53978   2
   9  -2  -2 -29.459 27.8118   1
  -9   2   2 2.85445 1.54292   3
   8  -2  -2 37.9098 3.13881   2
   8  -2  -2 68.3541 22.3094   1
  -8   2   2 37.9705 3.27171   3
  -8   2   2 42.2144 19.8342   1
   7  -2  -2 44.0204 18.1531   1
   7  -2  -2 37.6883 2.94701   2
  -7   2   2 30.0150 14.7404   1
  -7   2   2 38.8712 3.06148   3
   6  -2  -2 108.704 17.9441   1
   6  -2  -2 101.683 4.36019   2
  -6   2   2 104.582 4.61408   3
  -6   2   2 100.115 16.5526   1
  -6   2   2 98.1898 4.25202   2
   5  -2  -2 438.155 12.5197   2
   5  -2  -2 488.644 28.4447   1
  -5   2   2 427.283 26.9506   1
  -5   2   2 425.779 12.4768   2
  -5   2   2 425.504 12.8184   3
   4  -2  -2 85.1323 12.2791   1
   4  -2  -2 87.3495 3.42588   2
  -4   2   2 90.2842 3.61597   3
  -4   2   2 83.8078 12.3780   1
  -4   2   2 87.8254 3.40454   2
   3  -2  -2 15.5584 6.58679   1
   3  -2  -2 18.8572 1.50133   2
  -3   2   2 20.4099 1.53049   3
  -3   2   2 18.7328 7.90811   1
   2  -2  -2 188.054 5.58628   2
   2  -2  -2 183.484 12.9790   1
  -2   2   2 199.862 5.62028   2
  -2   2   2 176.444 12.9626   1
   1  -2  -2 67.7712 7.70239   1
   1  -2  -2 79.0648 2.55465   2
  -1   2   2 75.4573 2.52234   2
  -1   2   2 79.3960 2.66416   3
  -1   2   2 71.0342 7.31604   1
   0  -2  -2 225.611 10.5890   1
   0  -2  -2 231.548 6.37921   2
   0   2   2 234.980 6.37175   2
   0   2   2 244.328 10.7578   1
  -1  -2  -2 2545.56 66.6490   1
  -1  -2  -2 2445.58 66.4937   1
   1   2   2 2595.49 67.1572   1
  -2  -2  -2 214.870 6.67554   1
   2   2   2 198.894 5.74902   2
   2   2   2 210.915 7.62462   1
  -3  -2  -2 95.9019 2.86820   3
  -3  -2  -2 94.6676 6.38578   1
   3   2   2 92.8426 6.42839   1
   3   2   2 94.7617 3.08702   2
  -4  -2  -2 263.220 12.8406   1
  -4  -2  -2 265.480 7.42255   3
   4   2   2 269.940 7.64857   2
   4   2   2 269.873 13.6086   1
  -5  -2  -2 58.0904 2.28425   3
  -5  -2  -2 55.6717 7.63785   1
   5   2   2 52.5103 7.95299   1
  -6  -2  -2 146.252 4.82215   3
  -6  -2  -2 158.075 13.3373   1
   6   2   2 150.971 13.6837   1
   6   2   2 144.997 5.03981   2
  -7  -2  -2 6.84252 1.25786   3
  -7  -2  -2 12.7659 8.02242   1
   7   2   2 10.0063 7.79950   1
   7   2   2 9.07853 1.39145   2
  -8  -2  -2 37.0026 2.44758   3
  -8  -2  -2 37.3013 11.2489   1
   8   2   2 34.5491 2.75930   2
   8   2   2 36.4269 13.6311   1
  -9  -2  -2 12.5762 1.93314   3
  -9  -2  -2 18.6171 12.6861   1
   9   2   2 12.9359 1.91881   2
   9   2   2 -1.7678 14.6412   1
 -10  -2  -2 2.51331 1.50660   3
  10   2   2 -6.5174 21.2887   1
  10   2   2 3.77982 1.53631   2
 -11  -2  -2 2.30778 1.56167   3
  11   2   2 0.04624 1.42768   2
 -12  -2  -2 1.55562 1.66410   3
  12   2   2 -0.1863 1.82981   2
   9  -3  -2 3.39004 1.67946   2
   9  -3  -2 -10.118 37.7049   1
  -9   3   2 1.20152 1.63778   3
   8  -3  -2 -3.4739 23.1972   1
   8  -3  -2 8.45005 1.86881   2
  -8   3   2 25.4036 22.6810   1
  -8   3   2 4.44882 2.00103   3
   7  -3  -2 -11.831 16.6772   1
   7  -3  -2 12.3074 1.71342   2
  -7   3   2 13.5606 16.8266   1
  -7   3   2 13.4809 2.01604   3
   6  -3  -2 4.68564 14.0913   1
   6  -3  -2 8.58924 1.60923   2
  -6   3   2 22.8504 12.9190   1
  -6   3   2 7.51833 2.12079   3
   5  -3  -2 25.2365 12.0585   1
   5  -3  -2 27.1042 2.35141   2
  -5   3   2 29.2666 2.44141   3
  -5   3   2 26.8998 2.23569   2
  -5   3   2 35.8986 12.0518   1
   4  -3  -2 357.532 24.7139   1
   4  -3  -2 361.781 10.3864   2
  -4   3   2 351.922 10.7180   3
  -4   3   2 361.155 10.3822   2
  -4   3   2 334.195 24.0460   1
   3  -3  -2 93.2167 12.2351   1
   3  -3  -2 101.030 3.51821   2
  -3   3   2 105.850 13.9441   1
  -3   3   2 88.2985 3.41941   2
  -3   3   2 93.6616 3.70522   3
   2  -3  -2 118.675 11.3721   1
   2  -3  -2 117.410 3.81680   2
  -2   3   2 95.6669 11.0677   1
  -2   3   2 119.321 4.06787   3
  -2   3   2 114.382 3.79560   2
   1  -3  -2 28.2353 5.90331   1
   1  -3  -2 30.7791 1.55878   2
  -1   3   2 30.0337 1.54297   2
  -1   3   2 19.1479 5.68181   1
   0  -3  -2 931.189 23.6899   2
   0  -3  -2 798.779 28.7806   1
   0   3   2 962.600 23.7035   2
   0   3   2 923.217 30.0583   1
  -1  -3  -2 443.582 14.7257   1
  -1  -3  -2 491.312 12.2168   2
  -1  -3  -2 440.429 14.7232   1
   1   3   2 440.130 15.4951   1
   1   3   2 471.701 12.1992   2
   2   3   2 1693.17 43.7037   2
   3   3   2 1090.07 30.6133   1
  -4  -3  -2 231.338 6.55667   3
   4   3   2 233.864 6.72330   2
   4   3   2 224.599 10.9019   1
  -5  -3  -2 -7.2304 3.02797   1
  -5  -3  -2 -0.4855 0.59504   3
   5   3   2 1.58255 3.64977   1
   5   3   2 0.64112 0.96716   2
  -6  -3  -2 198.624 6.10120   3
  -6  -3  -2 196.663 12.8387   1
   6   3   2 187.718 14.8148   1
   6   3   2 200.222 6.32237   2
  -7  -3  -2 21.8924 1.77558   3
   7   3   2 24.1661 2.16547   2
   7   3   2 21.2826 8.62607   1
  -8  -3  -2 179.467 6.06824   3
   8   3   2 173.800 6.25413   2
   8   3   2 180.950 18.9662   1
  -9  -3  -2 21.8595 2.19764   3
   9   3   2 19.5055 2.11336   2
   9   3   2 24.3351 14.5436   1
  10   3   2 31.4575 21.9221   1
 -11  -3  -2 -1.0514 1.28887   3
  11   3   2 -1.0300 1.40896   2
 -12  -3  -2 6.95429 2.02072   3
  12   3   2 11.5928 2.99796   2
   9  -4  -2 77.3073 46.7505   1
   8  -4  -2 26.4578 2.57387   2
   8  -4  -2 27.4646 29.7020   1
  -8   4   2 26.7368 28.6049   1
  -8   4   2 21.4423 3.07060   3
   7  -4  -2 -1.1085 1.19369   2
   7  -4  -2 -5.8826 20.6279   1
  -7   4   2 -8.4171 21.9568   1
  -7   4   2 0.58514 1.39504   3
   6  -4  -2 -0.1324 1.14503   2
   6  -4  -2 10.0033 15.7430   1
  -6   4   2 0.09445 1.24938   3
  -6   4   2 -13.142 14.1544   1
   5  -4  -2 31.4061 2.55190   2
   5  -4  -2 38.2153 14.0514   1
  -5   4   2 34.4939 2.76188   3
  -5   4   2 34.6743 2.52140   2
  -5   4   2 47.4532 14.1715   1
   4  -4  -2 32.4262 11.4032   1
   4  -4  -2 35.6273 2.43038   2
  -4   4   2 35.0438 2.29990   2
  -4   4   2 38.6801 12.2754   1
  -4   4   2 34.6140 2.52776   3
   3  -4  -2 927.591 40.2687   1
   3  -4  -2 948.570 25.0470   2
  -3   4   2 919.310 25.5255   3
  -3   4   2 937.983 25.0417   2
  -3   4   2 946.430 42.4932   1
   2  -4  -2 11.0810 5.96147   1
   2  -4  -2 18.7239 1.52903   2
  -2   4   2 17.6965 1.46943   2
  -2   4   2 16.3040 1.55208   3
  -2   4   2 10.5632 7.22520   1
   1  -4  -2 393.991 10.7273   2
  -1   4   2 382.315 19.8629   1
  -1   4   2 389.063 10.7185   2
   0  -4  -2 2048.00 61.4980   1
   0  -4  -2 2131.48 54.0463   2
   0   4   2 2118.87 54.0330   2
   0   4   2 2064.13 62.4426   1
  -1  -4  -2 1411.66 40.2606   1
  -1  -4  -2 1430.39 40.4598   1
  -1  -4  -2 1383.59 36.1272   2
   1   4   2 1327.51 41.3620   1
   1   4   2 1410.11 36.1153   2
  -2  -4  -2 118.919 3.69450   2
   2   4   2 117.650 3.65761   2
   2   4   2 123.196 6.00089   1
   3   4   2 1247.63 32.4927   2
   4   4   2 348.959 12.5451   1
  -5  -4  -2 331.519 9.78237   3
   5   4   2 340.240 14.7627   1
  -6  -4  -2 84.9759 3.23344   3
   6   4   2 84.2908 3.44959   2
   6   4   2 93.6349 10.0240   1
  -7  -4  -2 55.7546 2.62850   3
   7   4   2 48.8823 2.82369   2
   7   4   2 51.6988 9.84818   1
  -8  -4  -2 178.181 5.96901   3
   8   4   2 167.478 6.12502   2
   8   4   2 171.265 17.8607   1
  -9  -4  -2 1.85779 1.20174   3
   9   4   2 2.45708 12.2264   1
   9   4   2 3.02065 1.35900   2
 -10  -4  -2 7.43380 1.79620   3
  10   4   2 8.73704 1.76850   2
  10   4   2 29.6442 19.5345   1
 -11  -4  -2 13.7598 2.07420   3
  11   4   2 13.6517 2.03487   2
 -12  -4  -2 5.50799 1.93417   3
  12   4   2 10.8667 2.18109   2
   8  -5  -2 3.15202 1.76346   2
   8  -5  -2 7.86381 38.0178   1
  -8   5   2 3.99915 1.98062   3
   7  -5  -2 14.7533 28.5123   1
  -7   5   2 9.42324 27.8806   1
   6  -5  -2 4.54978 1.48669   2
   6  -5  -2 0.23164 18.1413   1
  -6   5   2 -0.8685 1.33285   3
  -6   5   2 -3.5855 17.1807   1
   5  -5  -2 3.34517 1.19681   2
   5  -5  -2 1.48933 13.8377   1
  -5   5   2 -18.944 12.8347   1
  -5   5   2 2.28135 1.37566   3
   4  -5  -2 43.0910 12.8779   1
   4  -5  -2 36.2328 2.47598   2
  -4   5   2 23.7526 12.8991   1
  -4   5   2 32.5161 2.44760   2
  -4   5   2 35.6278 2.70218   3
   3  -5  -2 48.9223 11.5208   1
   3  -5  -2 35.3794 2.36571   2
  -3   5   2 42.2453 2.39676   2
  -3   5   2 29.9717 11.2090   1
  -3   5   2 43.2356 2.72984   3
   2  -5  -2 14.3814 1.59204   2
   2  -5  -2 10.7393 7.22759   1
  -2   5   2 16.6914 1.91581   3
  -2   5   2 7.67277 7.76383   1
  -2   5   2 19.3561 1.60114   2
   1  -5  -2 340.925 9.40607   2
  -1   5   2 334.614 9.77165   2
  -1   5   2 306.334 19.9908   1
   0  -5  -2 327.542 8.75051   2
   0  -5  -2 292.609 15.8630   1
   0   5   2 277.553 16.6987   1
   0   5   2 319.979 8.70661   2
  -1  -5  -2 59.9752 6.37765   1
  -1  -5  -2 60.5507 2.29978   2
  -1  -5  -2 59.7647 6.76073   1
   1   5   2 60.5369 2.26056   2
   1   5   2 53.0144 6.98355   1
  -2  -5  -2 1423.76 36.9460   2
   2   5   2 1449.58 36.9496   2
   2   5   2 1388.21 42.1413   1
   3   5   2 203.502 6.99839   1
   3   5   2 191.576 5.75154   2
   4   5   2 754.995 20.0962   2
   5   5   2 1426.53 41.2225   1
   6   5   2 68.1076 7.80466   1
   6   5   2 72.1993 3.08260   2
  -7  -5  -2 15.7498 1.72520   3
   7   5   2 2.25663 8.78391   1
   7   5   2 9.06669 1.42252   2
  -8  -5  -2 3.70779 1.28631   3
   8   5   2 3.40313 1.27682   2
   8   5   2 10.7792 7.88052   1
  -9  -5  -2 26.9229 2.30571   3
   9   5   2 31.2487 11.8475   1
   9   5   2 21.6638 2.15211   2
 -10  -5  -2 15.8532 2.09695   3
  10   5   2 17.1473 2.88127   2
 -11  -5  -2 0.66138 1.45050   3
  11   5   2 1.40365 1.37796   2
 -12  -5  -2 -2.1082 1.36952   3
  12   5   2 -0.5627 1.62068   2
   7  -6  -2 42.9508 37.6598   1
  -7   6   2 35.3119 33.3752   1
   6  -6  -2 -9.1441 25.3508   1
  -6   6   2 -13.344 40.5269   1
   5  -6  -2 16.6131 16.6168   1
  -5   6   2 27.6659 18.0835   1
   4  -6  -2 20.4980 15.6978   1
   4  -6  -2 15.5673 1.80619   2
  -4   6   2 6.54513 13.9326   1
  -4   6   2 13.2712 1.58316   2
  -4   6   2 12.3963 2.05692   3
   3  -6  -2 8.77876 1.25784   2
   3  -6  -2 7.42216 10.9310   1
  -3   6   2 7.66046 1.57091   3
  -3   6   2 8.38531 1.27478   2
  -3   6   2 6.72563 12.6606   1
   2  -6  -2 126.852 4.40596   2
   2  -6  -2 91.7377 15.0594   1
  -2   6   2 125.665 4.42203   2
  -2   6   2 98.0933 15.0885   1
  -2   6   2 126.888 5.00247   3
   1  -6  -2 6.34255 1.04940   2
   1  -6  -2 0.34230 6.71164   1
  -1   6   2 6.75693 0.98771   2
  -1   6   2 5.88852 7.14180   1
   0  -6  -2 518.025 23.7044   1
   0  -6  -2 530.419 14.0409   2
   0   6   2 532.707 25.5322   1
   0   6   2 485.015 14.2887   2
  -1  -6  -2 100.179 3.36564   2
  -1  -6  -2 98.5171 8.78569   1
   1   6   2 94.3653 10.5634   1
   1   6   2 96.9469 3.30759   2
  -2  -6  -2 5.71013 1.91350   1
  -2  -6  -2 3.27263 1.78783   1
  -2  -6  -2 4.04515 0.74271   2
   2   6   2 5.74568 0.76043   2
   2   6   2 -1.8790 4.03180   1
   3   6   2 265.673 10.6395   1
   3   6   2 256.710 7.43503   2
   4   6   2 165.223 5.11091   2
   5   6   2 8.17651 1.13704   2
   5   6   2 10.9080 1.15425   2
   5   6   2 6.32834 2.30305   1
   5   6   2 8.39945 2.20908   1
   6   6   2 5.18611 1.09413   2
   6   6   2 -0.4159 3.87548   1
   7   6   2 285.234 8.82829   2
   7   6   2 297.761 19.2525   1
   8   6   2 25.8157 2.39562   2
   8   6   2 26.7407 8.73210   1
  -9  -6  -2 5.94030 1.45798   3
   9   6   2 2.70011 10.3200   1
   9   6   2 4.12967 1.31950   2
 -10  -6  -2 14.9474 2.62057   3
  10   6   2 -18.781 20.8729   1
  10   6   2 12.3161 3.23363   2
 -11  -6  -2 -2.5040 1.22954   3
  11   6   2 1.42243 1.48977   2
  12   6   2 44.0557 26.7771   1
  -7   7   2 26.5401 73.5667   1
   6  -7  -2 1.25086 1.38319   2
   6  -7  -2 -31.663 28.5179   1
  -6   7   2 3.33818 1.78595   3
  -6   7   2 -24.659 30.8748   1
   5  -7  -2 14.8179 2.34602   2
   5  -7  -2 11.4605 22.2696   1
  -5   7   2 12.8659 23.1208   1
  -5   7   2 10.8714 2.04650   3
   4  -7  -2 13.7630 16.6049   1
  -4   7   2 3.07924 16.5563   1
  -4   7   2 1.79322 1.61580   3
   3  -7  -2 -2.4223 12.5239   1
   3  -7  -2 -0.0643 0.92575   2
  -3   7   2 -1.3926 1.24879   3
  -3   7   2 1.07319 0.98827   2
  -3   7   2 -8.1046 21.2615   1
   2  -7  -2 86.0345 3.63344   2
  -2   7   2 91.6146 3.63797   2
  -2   7   2 79.8696 15.2091   1
   1  -7  -2 11.8106 1.38849   2
   1  -7  -2 -6.9686 7.74777   1
  -1   7   2 7.38020 8.14068   1
  -1   7   2 14.0348 1.40525   2
   0  -7  -2 4.26868 6.64879   1
   0  -7  -2 3.13399 0.88272   2
   0   7   2 11.3934 7.84124   1
   0   7   2 3.84692 0.87869   2
  -1  -7  -2 90.6215 9.50106   1
  -1  -7  -2 92.1974 10.1984   1
  -1  -7  -2 99.3632 3.47922   2
   1   7   2 113.552 12.1728   1
  -2  -7  -2 58.8607 2.41665   2
  -2  -7  -2 53.2909 4.97101   1
  -2  -7  -2 57.9968 5.38272   1
   2   7   2 55.1798 2.30933   2
   2   7   2 57.3410 8.18100   1
   3   7   2 54.9349 2.33234   2
   3   7   2 66.2110 7.52114   1
   4   7   2 101.325 5.68612   1
   4   7   2 106.427 3.68128   2
   5   7   2 2.28661 0.79808   2
   6   7   2 23.8239 3.23394   1
   6   7   2 20.7141 1.73121   2
   6   7   2 22.7537 1.90780   2
   6   7   2 19.1347 3.22783   1
   7   7   2 51.2853 6.99529   1
   7   7   2 45.1511 2.65563   2
   7   7   2 42.9895 2.53634   2
   7   7   2 51.0693 6.45637   1
   8   7   2 1.60938 1.01395   2
   8   7   2 6.91541 6.29995   1
   8   7   2 -8.8382 6.70754   1
   9   7   2 35.2139 2.72142   2
   9   7   2 16.5210 10.2817   1
   9   7   2 36.5711 10.0318   1
  10   7   2 9.51707 13.2193   1
  10   7   2 3.59040 11.5693   1
  11   7   2 6.36239 1.61707   2
  11   7   2 10.5295 16.3594   1
  12   7   2 9.54729 24.0070   1
  12   7   2 7.71072 1.99548   2
   6  -8  -2 -0.3261 1.36016   2
  -6   8   2 5.50294 2.16334   3
   5  -8  -2 9.08936 1.80744   2
   5  -8  -2 68.1045 40.8709   1
  -5   8   2 12.4698 2.31205   3
  -5   8   2 11.7895 29.6103   1
   4  -8  -2 59.1292 22.8940   1
   4  -8  -2 3.23273 1.31997   2
  -4   8   2 -1.1547 21.2480   1
  -4   8   2 5.46853 1.81075   3
   3  -8  -2 0.52133 1.02609   2
  -3   8   2 1.45086 1.48612   3
   2  -8  -2 28.6283 13.7043   1
   2  -8  -2 27.3036 2.19352   2
  -2   8   2 18.3033 15.2474   1
  -2   8   2 19.8151 2.39752   3
  -2   8   2 25.9291 2.42999   2
   1  -8  -2 19.9446 1.90382   2
   1  -8  -2 32.6212 11.3104   1
  -1   8   2 18.3727 1.63938   2
  -1   8   2 10.0339 10.4549   1
   0  -8  -2 -0.3719 0.78931   2
   0   8   2 -2.1549 8.94543   1
   0   8   2 0.96178 0.79626   2
  -1  -8  -2 196.183 14.0191   1
  -1  -8  -2 182.345 5.79406   2
  -1  -8  -2 177.671 13.7334   1
   1   8   2 183.107 5.70551   2
   1   8   2 177.346 16.8295   1
  -2  -8  -2 17.3098 3.90503   1
  -2  -8  -2 20.5798 4.11329   1
   2   8   2 17.0652 1.48901   2
   2   8   2 10.0309 6.62368   1
   3   8   2 248.039 14.4156   1
   3   8   2 236.280 7.08228   2
   4   8   2 17.0924 4.20939   1
   4   8   2 17.1145 1.48814   2
   5   8   2 3.20061 0.89095   2
   6   8   2 18.7083 1.70707   2
   6   8   2 20.4008 1.85350   2
   7   8   2 163.878 5.57858   2
   7   8   2 155.942 5.49142   2
   8   8   2 15.3745 5.63410   1
   8   8   2 6.03981 5.87225   1
   9   8   2 4.09821 8.57343   1
   9   8   2 1.75198 7.94969   1
  10   8   2 17.1959 17.4940   1
  10   8   2 -2.5416 12.2214   1
  10   8   2 4.88733 1.76187   2
  11   8   2 6.48918 1.72972   2
  11   8   2 -7.5037 23.5132   1
  12   8   2 5.92919 1.86536   2
  12   8   2 -8.9853 22.7798   1
   5  -9  -2 11.4191 1.91142   2
  -5   9   2 8.16652 2.34809   3
   4  -9  -2 14.4494 37.3153   1
   4  -9  -2 13.0014 1.86177   2
  -4   9   2 10.0662 2.35926   3
  -4   9   2 13.8282 29.6947   1
   3  -9  -2 18.1660 20.4814   1
   3  -9  -2 3.92209 1.23498   2
  -3   9   2 3.82591 1.70411   3
  -3   9   2 -12.620 28.3596   1
   2  -9  -2 2.54122 1.12652   2
   2  -9  -2 -0.4748 15.4711   1
  -2   9   2 -0.2445 1.01484   2
  -2   9   2 10.5128 18.5170   1
  -2   9   2 0.44388 1.48752   3
   1  -9  -2 1.73805 1.01549   2
  -1   9   2 -15.386 12.9880   1
  -1   9   2 0.49926 0.90953   2
   0  -9  -2 54.3002 2.69684   2
   0  -9  -2 40.3431 10.4327   1
   0  -9  -2 55.1183 11.7975   1
   0   9   2 50.1581 2.53433   2
   0   9   2 53.5657 13.9441   1
  -1  -9  -2 27.5234 7.60928   1
  -1  -9  -2 32.9089 2.06750   2
  -1  -9  -2 25.0433 8.09738   1
   1   9   2 15.3240 12.7194   1
   1   9   2 29.3246 1.94997   2
  -2  -9  -2 295.289 8.77106   2
  -2  -9  -2 266.489 12.3816   1
  -2  -9  -2 281.062 12.3341   1
   2   9   2 309.886 20.8214   1
   2   9   2 277.322 8.31059   2
   3   9   2 41.4215 2.10913   2
   3   9   2 38.0026 8.32170   1
   4   9   2 12.5668 1.27245   2
   4   9   2 8.52233 5.37954   1
   5   9   2 2.57526 0.88470   2
   6   9   2 2.19581 0.91541   2
   6   9   2 2.08279 0.97984   2
   7   9   2 2.57177 1.08819   2
   7   9   2 5.19672 1.10972   2
   8   9   2 -2.6748 0.88136   2
   8   9   2 1.06123 0.90140   2
   9   9   2 3.44500 1.27793   2
   9   9   2 -5.7080 6.13520   1
   9   9   2 15.6124 6.80170   1
  10   9   2 -2.5700 9.85240   1
  10   9   2 2.21686 1.36912   2
  10   9   2 1.07769 10.5635   1
  11   9   2 -1.2211 1.26458   2
  11   9   2 1.85814 14.5858   1
  12   9   2 27.2515 22.3645   1
   4 -10  -2 -0.2893 1.23805   2
  -4  10   2 2.92690 2.11654   3
   3 -10  -2 45.0291 3.46585   2
  -3  10   2 38.0623 3.79760   3
  -3  10   2 39.1900 34.6947   1
   2 -10  -2 7.16922 1.48257   2
   2 -10  -2 9.76561 23.7357   1
  -2  10   2 2.19209 21.4648   1
  -2  10   2 6.54425 1.98748   3
   1 -10  -2 -11.800 14.0317   1
   1 -10  -2 -8.2715 14.7712   1
   1 -10  -2 0.54627 1.00974   2
  -1  10   2 2.48017 1.19614   2
  -1  10   2 -27.346 18.2630   1
   0 -10  -2 25.4141 12.4907   1
   0 -10  -2 25.9590 2.06244   2
   0 -10  -2 11.2531 12.7914   1
   0  10   2 10.6802 15.3904   1
   0  10   2 20.6192 1.84758   2
  -1 -10  -2 0.88848 7.60021   1
  -1 -10  -2 1.28493 0.90747   2
  -1 -10  -2 7.80342 8.56350   1
   1  10   2 0.57022 0.79237   2
   1  10   2 -0.4565 11.7786   1
  -2 -10  -2 60.5652 6.30345   1
  -2 -10  -2 48.1483 2.59240   2
   2  10   2 56.2752 12.4390   1
   2  10   2 53.3124 2.52021   2
   3  10   2 49.3011 2.39789   2
   3  10   2 56.0795 10.8213   1
   4  10   2 44.8900 9.01240   1
   4  10   2 54.2697 2.47452   2
   5  10   2 38.2769 2.20837   2
   6  10   2 93.4222 3.82277   2
   6  10   2 109.803 4.08425   2
   7  10   2 16.7632 1.77450   2
   8  10   2 182.347 6.38059   2
   9  10   2 5.88072 1.40699   2
  10  10   2 21.3817 2.27197   2
  11  10   2 2.14305 1.49460   2
  11  10   2 -5.1789 13.3669   1
  12  10   2 4.27536 2.00551   2
   2 -11  -2 -32.857 28.8906   1
  -2  11   2 9.43076 2.74519   3
   1 -11  -2 16.2917 1.75255   2
   1 -11  -2 -38.695 19.4551   1
  -1  11   2 10.2997 2.46859   3
  -1  11   2 16.4008 25.4601   1
   0 -11  -2 19.9925 1.88817   2
   0 -11  -2 29.1173 15.3167   1
   0  11   2 24.0213 2.18486   2
   0  11   2 25.3183 20.2058   1
  -1 -11  -2 2.90912 9.46477   1
   1  11   2 -7.5670 15.2593   1
  -2 -11  -2 -0.2170 0.85263   2
   2  11   2 0.93852 0.86138   2
   2  11   2 -7.8936 12.6800   1
   3  11   2 31.7876 2.06679   2
   3  11   2 42.8073 12.7508   1
   4  11   2 -0.8029 0.76376   2
   4  11   2 -0.4844 8.91550   1
   5  11   2 15.8382 1.53604   2
   6  11   2 0.34505 0.81365   2
   6  11   2 -0.8935 0.86258   2
   7  11   2 10.3157 1.35324   2
   7  11   2 6.43088 1.32840   2
   8  11   2 7.09293 1.34749   2
   9  11   2 0.90243 1.10024   2
  10  11   2 4.66158 1.38528   2
  11  11   2 6.48049 1.63586   2
   1 -12  -2 9.10952 1.50983   2
  -1  12   2 8.62040 2.45723   3
   0 -12  -2 8.73583 19.8705   1
   0 -12  -2 4.32039 1.27091   2
   0  12   2 37.8473 29.9325   1
  -1 -12  -2 22.1901 1.95755   2
  -1 -12  -2 10.0293 11.3515   1
   1  12   2 16.9901 22.8477   1
   1  12   2 13.1082 1.65499   2
   2  12   2 14.7220 18.7597   1
   2  12   2 7.42988 1.68827   2
   3  12   2 43.3288 2.47581   2
   3  12   2 60.3729 17.0745   1
   4  12   2 -0.1073 12.4293   1
   5  12   2 3.28893 1.04676   2
   6  12   2 7.37209 1.36461   2
   6  12   2 9.47311 1.40802   2
   7  12   2 26.8237 2.16512   2
   7  12   2 22.2411 2.15740   2
   8  12   2 8.00481 1.46006   2
  10  12   2 11.7768 1.69473   2
   2  13   2 61.4949 27.1138   1
   3  13   2 100.774 23.4721   1
   4  13   2 6.03748 16.7937   1
   5  13   2 34.7429 2.43223   2
   6  13   2 -2.4451 0.84960   2
   7  13   2 11.9151 1.51871   2
   8  13   2 2.65963 1.07882   2
   9  13   2 -2.2446 1.01263   2
   5  14   2 43.8699 2.59819   2
   6  14   2 5.81684 1.20110   2
   7  14   2 33.9664 2.54306   2
   6  13  -3 8.83216 16.5774   1
   5  13  -3 12.4015 18.7847   1
   4  13  -3 40.3288 21.3481   1
   3  13  -3 16.7714 25.0302   1
   2  13  -3 -18.761 36.7852   1
  10  12  -3 6.53540 2.41082   2
   9  12  -3 3.52511 1.16976   2
   8  12  -3 6.66552 1.20588   2
   7  12  -3 -8.5184 11.9934   1
   6  12  -3 -7.2749 12.2933   1
   5  12  -3 61.8364 15.5689   1
   4  12  -3 19.5858 15.6167   1
   3  12  -3 -3.2563 17.7196   1
   2  12  -3 8.07011 20.9773   1
  -2 -12   3 6.76107 7.96389   1
   1  12  -3 38.5838 24.3634   1
  -1 -12   3 17.2531 14.5193   1
   0  12  -3 -11.949 28.6675   1
   0 -12   3 -12.978 30.2615   1
  10  11  -3 8.18103 2.61324   2
   9  11  -3 50.3606 2.76396   2
   9  11  -3 47.3144 14.3839   1
   8  11  -3 39.6661 11.8258   1
   8  11  -3 29.7087 2.07976   2
   8  11  -3 20.2653 1.90408   2
   7  11  -3 15.5529 10.6455   1
   7  11  -3 15.2816 1.38739   2
   7  11  -3 14.3014 1.29242   2
   6  11  -3 8.91156 1.00512   2
   6  11  -3 9.87350 1.00955   2
   6  11  -3 6.89261 16.2740   1
   5  11  -3 2.94462 11.0987   1
   4  11  -3 2.92605 11.6356   1
   3  11  -3 -14.053 12.5915   1
   2  11  -3 -1.8183 15.3376   1
  -1 -11   3 17.0272 12.1364   1
   0  11  -3 66.8658 22.7052   1
   0 -11   3 6.52678 16.1728   1
  -1  11  -3 30.3879 27.0317   1
   1 -11   3 4.10209 21.7252   1
  -2  11  -3 -19.771 37.3015   1
   2 -11   3 -16.747 29.5322   1
  -3  11  -3 -0.7438 1.64929   3
   3 -11   3 1.77463 1.12387   2
  11  10  -3 9.40745 1.71919   2
  11  10  -3 2.51714 23.4889   1
  10  10  -3 -1.6707 1.82083   2
  10  10  -3 -1.8344 16.5922   1
   9  10  -3 9.84333 12.9326   1
   9  10  -3 5.46596 1.26490   2
   8  10  -3 70.4561 3.22382   2
   8  10  -3 72.7508 3.19229   2
   8  10  -3 89.8567 13.8760   1
   8  10  -3 77.2460 13.4251   1
   7  10  -3 33.9616 2.04543   2
   7  10  -3 40.8128 15.5865   1
   7  10  -3 28.4731 1.92657   2
   6  10  -3 1.64317 8.87992   1
   6  10  -3 9.04355 1.19333   2
   6  10  -3 13.2846 1.48352   2
   5  10  -3 21.3847 1.30159   2
   5  10  -3 28.3001 9.97333   1
   5  10  -3 18.3859 1.32319   2
   4  10  -3 28.8007 10.7672   1
   3  10  -3 113.518 15.7610   1
   2  10  -3 20.1305 12.1402   1
  -2 -10   3 35.8664 8.81121   1
   1  10  -3 -12.856 12.5664   1
  -1 -10   3 7.72571 9.80429   1
   0  10  -3 34.3939 16.5114   1
   0 -10   3 -5.4155 11.8383   1
  -1  10  -3 84.2284 3.02551   2
  -1  10  -3 51.0613 20.2534   1
   1 -10   3 69.1154 19.3410   1
   1 -10   3 79.8694 2.89831   2
  -2  10  -3 51.0969 26.3326   1
  -3  10  -3 33.3705 33.2065   1
  -3  10  -3 28.3563 3.31743   3
   3 -10   3 39.0680 2.27550   2
   3 -10   3 24.5431 27.9884   1
  -4  10  -3 11.5690 2.89651   3
   4 -10   3 14.9812 1.61119   2
  11   9  -3 1.63062 1.37502   2
  11   9  -3 -18.306 22.8667   1
  10   9  -3 34.5841 4.25462   2
   9   9  -3 -0.8467 12.1231   1
   9   9  -3 5.25815 13.5761   1
   9   9  -3 0.96301 1.06138   2
   8   9  -3 -15.224 9.85731   1
   8   9  -3 0.88202 0.92182   2
   8   9  -3 3.14375 1.06890   2
   8   9  -3 -8.7056 9.43826   1
   7   9  -3 44.9266 2.41371   2
   7   9  -3 41.7896 9.91677   1
   7   9  -3 44.1816 2.29820   2
   6   9  -3 50.9178 3.48619   2
   6   9  -3 54.4883 9.55938   1
   6   9  -3 62.9257 2.52439   2
   5   9  -3 10.0919 1.01394   2
   5   9  -3 10.8714 0.97877   2
   5   9  -3 8.85298 7.31964   1
   4   9  -3 2.83603 7.69595   1
   4   9  -3 9.48678 0.81135   2
   4   9  -3 9.58655 0.85996   2
   3   9  -3 7.47021 8.34585   1
  -3  -9   3 6.06201 3.96294   1
   2   9  -3 -4.2394 15.5289   1
  -2  -9   3 9.24922 6.47860   1
   1   9  -3 83.1239 14.4685   1
  -1  -9   3 90.9167 12.6309   1
   0   9  -3 13.2554 1.06686   2
   0   9  -3 21.8210 11.8554   1
   0  -9   3 9.85769 15.3558   1
   0  -9   3 13.4436 1.07748   2
  -1   9  -3 -5.5885 13.0580   1
  -1   9  -3 0.07179 0.65080   2
   1  -9   3 -9.9060 12.2762   1
   1  -9   3 0.02491 0.65826   2
  -2   9  -3 2.55054 0.87284   2
  -2   9  -3 -6.2600 15.9788   1
   2  -9   3 9.85726 15.1590   1
  -3   9  -3 16.5762 1.62861   2
  -3   9  -3 12.5603 2.13155   3
  -3   9  -3 20.8941 24.2814   1
   3  -9   3 17.9659 1.63103   2
  -4   9  -3 14.4080 31.7200   1
   4  -9   3 27.6403 26.3530   1
  -5   9  -3 47.5248 4.26875   3
  -5   9  -3 61.5052 54.3900   1
   5  -9   3 56.9372 3.11573   2
  11   8  -3 -6.8368 22.3578   1
  11   8  -3 2.51883 1.43389   2
  10   8  -3 24.1550 16.7696   1
   9   8  -3 5.16254 13.4479   1
   9   8  -3 19.8829 12.6872   1
   9   8  -3 1.26228 1.17712   2
   8   8  -3 41.1665 11.9860   1
   8   8  -3 25.2306 10.6111   1
   8   8  -3 35.4695 2.45230   2
   7   8  -3 59.8305 11.2275   1
   7   8  -3 60.9047 10.2641   1
   7   8  -3 64.1993 2.96312   2
   6   8  -3 6.72255 6.56529   1
   5   8  -3 122.309 3.97611   2
   5   8  -3 113.171 12.5504   1
   5   8  -3 128.836 4.00500   2
   4   8  -3 93.1877 11.0746   1
   4   8  -3 91.5489 2.90998   2
   4   8  -3 88.5538 2.92422   2
   3   8  -3 998.993 25.8946   2
   3   8  -3 1016.23 25.8852   2
   3   8  -3 997.454 37.8928   1
  -3  -8   3 983.137 31.3271   1
   2   8  -3 335.815 21.2636   1
  -2  -8   3 312.266 16.8874   1
   1   8  -3 53.0667 11.5929   1
  -1  -8   3 47.1230 9.56895   1
   0   8  -3 22.6266 1.23093   2
   0   8  -3 9.15787 10.1231   1
   0  -8   3 19.9652 1.17702   2
   0  -8   3 14.0546 9.67961   1
  -1   8  -3 1.07779 0.64621   2
  -1   8  -3 -9.5919 9.91465   1
   1  -8   3 -6.5029 9.68819   1
   1  -8   3 0.16921 0.61118   2
  -2   8  -3 63.1148 16.2375   1
  -2   8  -3 57.3159 2.49196   2
   2  -8   3 -5.5571 18.0184   1
   2  -8   3 59.0774 2.94786   2
  -3   8  -3 185.610 5.97542   2
  -3   8  -3 182.489 26.6439   1
   3  -8   3 156.847 22.0724   1
   3  -8   3 189.784 5.95441   2
  -4   8  -3 13.3281 21.2180   1
  -4   8  -3 -1.3735 1.37091   3
  -4   8  -3 -3.0231 1.05635   2
   4  -8   3 -3.1634 18.1796   1
   4  -8   3 1.00986 0.98521   2
  -5   8  -3 54.9290 4.09370   3
  -5   8  -3 65.5989 29.2805   1
   5  -8   3 54.3601 3.07253   2
   5  -8   3 26.3593 24.8938   1
  -6   8  -3 5.36541 2.07351   3
  -6   8  -3 3.28392 44.1416   1
   6  -8   3 8.34307 1.53132   2
  12   7  -3 2.79997 1.71358   2
 -12  -7   3 4.04603 2.12822   3
  11   7  -3 -6.3645 22.8299   1
  11   7  -3 1.92457 1.44102   2
 -11  -7   3 2.34339 1.80120   3
  10   7  -3 1.73353 16.7214   1
  10   7  -3 1.88193 1.65724   2
 -10  -7   3 7.27841 2.19375   3
   9   7  -3 -14.593 11.7619   1
   9   7  -3 -18.509 15.0676   1
   9   7  -3 0.75075 1.05658   2
  -9  -7   3 -0.0571 1.38661   3
   8   7  -3 28.7452 11.3926   1
   8   7  -3 31.7170 2.39824   2
   8   7  -3 12.6957 9.75737   1
   7   7  -3 34.6514 10.1450   1
   7   7  -3 36.3959 9.24257   1
   7   7  -3 34.0784 2.29676   2
   6   7  -3 4.93229 6.42090   1
   5   7  -3 27.6841 7.12512   1
   5   7  -3 20.5429 1.52121   2
   5   7  -3 27.4655 1.63837   2
   4   7  -3 10.6484 0.91043   2
   4   7  -3 7.67827 5.38352   1
   4   7  -3 11.2660 0.96167   2
   3   7  -3 49.5079 9.75062   1
   3   7  -3 40.6241 1.54871   2
   3   7  -3 39.9399 1.51509   2
  -3  -7   3 49.7716 5.77420   1
   2   7  -3 12.1402 6.46316   1
  -2  -7   3 7.35395 4.82495   1
   1   7  -3 239.486 18.0328   1
   0   7  -3 142.422 16.2839   1
   0   7  -3 126.483 3.76059   2
   0  -7   3 123.373 13.8824   1
   0  -7   3 129.587 3.76189   2
  -1   7  -3 200.282 20.3431   1
  -1   7  -3 180.632 5.36653   2
   1  -7   3 181.765 5.34927   2
   1  -7   3 188.838 17.4827   1
  -2   7  -3 41.1014 14.0148   1
   2  -7   3 55.4357 2.34003   2
   2  -7   3 26.7382 12.1795   1
  -3   7  -3 8.47820 1.20242   2
  -3   7  -3 10.8535 13.2878   1
   3  -7   3 9.76226 1.25984   2
   3  -7   3 0.84293 12.1613   1
  -4   7  -3 4.05377 1.57165   3
  -4   7  -3 24.9021 17.0236   1
  -4   7  -3 3.26993 1.06437   2
   4  -7   3 -8.6375 18.8299   1
   4  -7   3 1.70285 1.06741   2
  -5   7  -3 32.7990 21.8262   1
  -5   7  -3 6.34442 1.76218   3
   5  -7   3 8.83047 20.8505   1
   5  -7   3 5.81009 1.28368   2
  -6   7  -3 4.86056 1.83407   3
  -6   7  -3 -21.432 27.7752   1
   6  -7   3 5.32279 30.0361   1
   6  -7   3 7.17805 1.48728   2
  -7   7  -3 -24.650 40.8856   1
  -7   7  -3 0.67612 1.69769   3
   7  -7   3 17.8751 54.8856   1
   7  -7   3 1.47178 1.36654   2
  12   6  -3 1.60404 1.83324   2
 -12  -6   3 0.45158 2.03171   3
  11   6  -3 -8.2229 23.1393   1
  11   6  -3 -0.2949 1.33128   2
 -11  -6   3 -1.0765 1.56207   3
  10   6  -3 -8.3850 15.8025   1
  10   6  -3 8.44253 18.3778   1
  10   6  -3 4.05497 1.42935   2
 -10  -6   3 -0.4162 1.45073   3
   9   6  -3 2.09450 13.4320   1
   9   6  -3 -20.321 12.0707   1
   9   6  -3 -0.2303 1.08223   2
  -9  -6   3 1.57504 1.58522   3
   8   6  -3 -2.9094 9.58453   1
   8   6  -3 -1.9561 8.96730   1
   8   6  -3 1.50504 1.08359   2
   7   6  -3 50.2852 2.67249   2
   7   6  -3 34.1389 9.92670   1
   7   6  -3 44.8893 10.5106   1
  -7  -6   3 50.8555 3.12962   3
   6   6  -3 69.1572 4.36420   2
   6   6  -3 70.5799 9.59291   1
  -6  -6   3 65.8033 3.39458   3
   5   6  -3 202.825 6.08230   2
   5   6  -3 209.185 14.1013   1
   4   6  -3 131.966 4.02540   2
   3   6  -3 254.062 14.6968   1
   3   6  -3 267.519 7.24531   2
   3   6  -3 264.958 7.23377   2
  -3  -6   3 279.457 12.2763   1
   2   6  -3 265.157 15.4813   1
  -2  -6   3 233.907 12.8044   1
   1   6  -3 1203.12 42.7044   1
  -1  -6   3 1204.83 40.7731   1
   0   6  -3 1259.95 32.7768   2
   0   6  -3 1299.01 46.7029   1
   0  -6   3 1241.12 44.6281   1
   0  -6   3 1282.09 32.7917   2
  -1   6  -3 58.1820 11.0538   1
  -1   6  -3 57.3437 2.12766   2
   1  -6   3 56.1848 2.07537   2
  -2   6  -3 9.14402 1.03177   2
  -2   6  -3 1.39527 7.82440   1
   2  -6   3 8.50482 1.03245   2
   2  -6   3 19.3956 9.54460   1
  -3   6  -3 520.445 34.0788   1
  -3   6  -3 526.731 14.9576   2
   3  -6   3 552.276 32.4482   1
   3  -6   3 569.022 15.0609   2
  -4   6  -3 298.905 9.06001   2
  -4   6  -3 288.004 10.9922   3
  -4   6  -3 293.317 28.9367   1
   4  -6   3 315.867 9.07771   2
   4  -6   3 326.663 27.7437   1
  -5   6  -3 0.25191 0.94378   2
  -5   6  -3 -3.3700 15.7815   1
  -5   6  -3 1.35523 1.38998   3
   5  -6   3 15.1458 16.6247   1
   5  -6   3 2.39047 1.15124   2
  -6   6  -3 22.0980 3.03518   3
  -6   6  -3 40.7911 37.7089   1
   6  -6   3 16.6826 1.96629   2
   6  -6   3 48.0986 24.1573   1
  -7   6  -3 -35.459 29.1463   1
  -7   6  -3 2.21034 1.71247   3
   7  -6   3 -34.078 31.7595   1
   7  -6   3 -0.0968 1.11496   2
  -8   6  -3 0.68695 1.87503   3
  -8   6  -3 10.3876 50.4377   1
   8  -6   3 -1.0603 1.25960   2
 -12  -5   3 57.0097 4.52101   3
  11   5  -3 3.65497 21.6834   1
  11   5  -3 -0.4657 1.45811   2
 -11  -5   3 2.38253 1.79600   3
  10   5  -3 11.0756 15.8552   1
  10   5  -3 11.3377 1.98961   2
  10   5  -3 19.1602 18.1147   1
 -10  -5   3 11.7602 2.41663   3
   9   5  -3 43.4955 13.8214   1
   9   5  -3 23.8195 14.3363   1
   9   5  -3 6.90364 1.58219   2
  -9  -5   3 13.3042 2.10793   3
   8   5  -3 38.1593 2.71489   2
   8   5  -3 41.7114 11.1425   1
   8   5  -3 26.0982 11.6031   1
  -8  -5   3 43.3093 3.03961   3
   7   5  -3 18.3759 8.47537   1
   7   5  -3 20.5650 1.94927   2
   7   5  -3 7.46046 8.45984   1
  -7  -5   3 15.2713 1.94031   3
   6   5  -3 276.006 17.6581   1
   6   5  -3 258.735 17.7651   1
   6   5  -3 237.298 7.48634   2
  -6  -5   3 235.884 7.85702   3
   5   5  -3 11.9666 4.95917   1
   5   5  -3 12.9426 1.20793   2
  -5  -5   3 17.6552 1.92356   3
   4   5  -3 98.0446 9.37518   1
   4   5  -3 96.1869 3.14714   2
   3   5  -3 113.109 3.36581   2
   3   5  -3 106.186 8.93445   1
  -3  -5   3 120.780 7.81323   1
   2   5  -3 6.76857 3.76251   1
   2   5  -3 4.93663 0.43601   2
  -2  -5   3 4.34394 3.42281   1
   1   5  -3 -4.3958 3.50165   1
  -1  -5   3 -4.6636 3.16134   1
   0   5  -3 142.296 4.10428   2
   0   5  -3 155.225 13.2033   1
   0  -5   3 151.561 4.11990   2
   0  -5   3 171.409 12.2421   1
  -1   5  -3 236.716 6.49846   2
  -1   5  -3 264.111 18.4348   1
   1  -5   3 189.751 19.5115   1
   1  -5   3 234.637 6.46408   2
  -2   5  -3 238.572 18.8067   1
  -2   5  -3 226.711 6.47653   2
   2  -5   3 218.797 6.43598   2
   2  -5   3 223.542 17.5791   1
  -3   5  -3 83.8724 3.21672   2
  -3   5  -3 129.580 20.0226   1
   3  -5   3 83.5192 3.22586   2
   3  -5   3 86.1619 13.8547   1
  -4   5  -3 93.6128 17.7106   1
  -4   5  -3 68.0751 3.55377   3
  -4   5  -3 71.7598 3.12023   2
   4  -5   3 77.5398 3.17827   2
   4  -5   3 65.2552 14.3915   1
  -5   5  -3 111.039 4.85213   3
  -5   5  -3 106.888 4.26709   2
  -5   5  -3 99.3016 19.9770   1
   5  -5   3 115.316 19.8066   1
   5  -5   3 105.945 4.27480   2
  -6   5  -3 0.85367 1.12712   3
  -6   5  -3 -23.688 16.2549   1
   6  -5   3 5.02925 17.7498   1
   6  -5   3 -2.0465 0.96143   2
  -7   5  -3 14.2231 2.43602   3
  -7   5  -3 4.02643 24.6542   1
   7  -5   3 13.8307 1.79965   2
   7  -5   3 25.5727 27.8311   1
  -8   5  -3 55.7702 35.7917   1
  -8   5  -3 18.1319 2.69950   3
   8  -5   3 37.7759 39.5924   1
   8  -5   3 17.3665 2.17087   2
  12   4  -3 6.59687 2.03511   2
 -12  -4   3 1.88710 2.21414   3
  11   4  -3 12.2535 25.0185   1
  11   4  -3 64.6939 4.21775   2
 -11  -4   3 52.1417 4.26736   3
  10   4  -3 15.4155 19.8740   1
  10   4  -3 6.61553 1.73421   2
  10   4  -3 1.91829 17.5003   1
 -10  -4   3 6.43985 2.03220   3
   9   4  -3 86.9207 18.2979   1
   9   4  -3 59.5766 3.56859   2
   9   4  -3 58.9487 16.0916   1
  -9  -4   3 59.9101 3.75048   3
   8   4  -3 -5.9782 9.23216   1
   8   4  -3 9.08533 11.9028   1
   8   4  -3 1.86335 1.26818   2
  -8  -4   3 1.07565 1.19547   3
  -8  -4   3 0.92208 0.95050   2
   7   4  -3 16.1256 8.90311   1
   7   4  -3 20.7214 9.46815   1
   7   4  -3 25.4217 2.26638   2
  -7  -4   3 23.3081 1.94983   2
  -7  -4   3 17.8770 1.93090   3
   6   4  -3 4.71133 6.70183   1
   6   4  -3 9.73839 1.37322   2
   6   4  -3 11.7069 6.54947   1
  -6  -4   3 11.6159 1.55453   3
  -6  -4   3 12.7431 1.36138   2
   5   4  -3 54.4515 8.30270   1
   5   4  -3 54.5372 2.43853   2
   5   4  -3 45.2803 8.31485   1
  -5  -4   3 56.5266 2.71541   3
   4   4  -3 0.98953 3.58342   1
   4   4  -3 2.38711 0.67687   2
  -4  -4   3 1.78628 0.62713   2
  -4  -4   3 1.57126 0.83019   3
   3   4  -3 237.501 6.51413   2
   3   4  -3 235.595 12.4677   1
  -3  -4   3 235.986 11.5455   1
  -3  -4   3 233.684 7.07858   3
   2   4  -3 302.618 14.0734   1
   2   4  -3 289.510 7.72692   2
  -2  -4   3 289.082 12.9290   1
   1   4  -3 111.263 9.02322   1
  -1  -4   3 104.771 8.35322   1
   0   4  -3 241.181 14.1044   1
  -1   4  -3 67.8286 9.80576   1
  -1   4  -3 81.8538 2.55169   2
   1  -4   3 83.6838 2.54089   2
   1  -4   3 86.5341 9.81129   1
  -2   4  -3 99.6905 12.3039   1
  -2   4  -3 104.580 3.30127   2
   2  -4   3 103.725 12.5864   1
   2  -4   3 101.811 3.27329   2
  -3   4  -3 5.54616 9.28203   1
  -3   4  -3 4.22776 0.80311   2
   3  -4   3 9.61363 7.29249   1
   3  -4   3 4.60781 0.82703   2
  -4   4  -3 156.862 19.6751   1
  -4   4  -3 157.994 5.16709   2
  -4   4  -3 157.537 5.54702   3
   4  -4   3 157.445 18.0070   1
  -5   4  -3 204.392 7.03999   3
  -5   4  -3 210.863 6.65496   2
  -5   4  -3 174.039 22.0952   1
   5  -4   3 198.422 6.59409   2
   5  -4   3 254.474 23.7248   1
  -6   4  -3 95.3344 4.16243   2
  -6   4  -3 132.429 22.4078   1
  -6   4  -3 109.761 4.65182   3
   6  -4   3 128.182 21.3349   1
   6  -4   3 95.3940 4.19167   2
  -7   4  -3 49.0538 22.4509   1
  -7   4  -3 50.1844 3.47356   3
   7  -4   3 55.7629 3.27759   2
   7  -4   3 40.7944 23.6164   1
  -8   4  -3 11.9583 25.1721   1
  -8   4  -3 -0.8525 1.33583   3
   8  -4   3 -22.195 27.2828   1
   8  -4   3 -0.9279 1.17562   2
   9  -4   3 -56.996 43.9001   1
  11   3  -3 11.2303 2.31370   2
 -11  -3   3 15.3552 2.68989   3
  10   3  -3 52.5275 25.2087   1
  10   3  -3 60.4882 22.2426   1
  10   3  -3 97.7813 4.92401   2
 -10  -3   3 97.0554 5.22848   3
   9   3  -3 22.7589 14.0721   1
   9   3  -3 29.4888 2.71570   2
   9   3  -3 37.6301 17.5843   1
  -9  -3   3 36.4187 3.07827   3
   8   3  -3 88.9980 15.1789   1
   8   3  -3 69.3944 3.65189   2
   8   3  -3 90.4861 17.1281   1
  -8  -3   3 69.6229 3.84346   3
   7   3  -3 152.920 5.40763   2
   7   3  -3 128.839 15.8566   1
   7   3  -3 112.890 27.6494   1
  -7  -3   3 149.789 5.64194   3
  -7  -3   3 145.810 5.22930   2
   6   3  -3 76.8617 12.2647   1
   6   3  -3 55.2982 10.3909   1
   6   3  -3 76.5015 3.29561   2
  -6  -3   3 77.1632 3.17408   2
  -6  -3   3 77.1864 3.44723   3
   5   3  -3 676.714 28.1193   1
   5   3  -3 629.275 27.8750   1
  -5  -3   3 629.769 17.3699   2
  -5  -3   3 644.319 17.7757   3
   4   3  -3 163.897 11.5809   1
   4   3  -3 162.272 4.92688   2
  -4  -3   3 162.055 4.89852   2
  -4  -3   3 160.005 5.23593   3
   3   3  -3 168.890 4.83594   2
   3   3  -3 171.526 10.7135   1
  -3  -3   3 166.282 4.81774   2
  -3  -3   3 163.697 5.20856   3
   2   3  -3 719.990 25.0240   1
   2   3  -3 743.846 18.8607   2
  -2  -3   3 749.000 24.4959   1
  -2  -3   3 716.218 18.8464   2
  -2  -3   3 707.503 19.3400   3
   1   3  -3 145.510 9.17881   1
  -1  -3   3 144.884 8.73058   1
   0   3  -3 147.646 10.3063   1
  -1   3  -3 887.867 32.2634   1
  -1   3  -3 869.875 22.7724   2
   1  -3   3 916.302 32.3349   1
   1  -3   3 857.925 22.7607   2
  -2   3  -3 869.111 22.0350   2
  -2   3  -3 825.048 33.0768   1
   2  -3   3 807.136 32.8534   1
   2  -3   3 845.619 22.0045   2
  -3   3  -3 511.109 13.6864   2
  -3   3  -3 476.310 29.4885   1
   3  -3   3 508.019 13.6532   2
   3  -3   3 508.715 27.1977   1
  -4   3  -3 165.052 5.38745   2
  -4   3  -3 169.759 5.64869   3
  -4   3  -3 181.101 17.7017   1
   4  -3   3 188.210 17.4527   1
   4  -3   3 176.100 5.53013   2
  -5   3  -3 3.69006 9.64797   1
  -5   3  -3 3.15947 1.06778   3
  -5   3  -3 3.55534 1.05342   2
   5  -3   3 5.67675 1.10282   2
   5  -3   3 0.40283 8.90235   1
  -6   3  -3 47.8161 2.86113   3
  -6   3  -3 36.9108 13.7830   1
  -6   3  -3 46.2490 3.02736   2
   6  -3   3 26.8542 14.0917   1
   6  -3   3 43.0986 2.70402   2
  -7   3  -3 60.1978 3.49333   3
  -7   3  -3 61.6931 17.8619   1
   7  -3   3 60.1418 3.31462   2
   7  -3   3 72.5419 18.7756   1
  -8   3  -3 8.95679 22.3449   1
  -8   3  -3 2.45122 1.42841   3
   8  -3   3 49.0897 22.8815   1
  -9   3  -3 3.30358 31.7019   1
   9  -3   3 0.35361 35.4034   1
 -10   3  -3 2.58330 1.91267   3
  10  -3   3 5.17424 1.92108   2
  11   2  -3 61.1397 33.6497   1
  10   2  -3 4.44007 1.63755   2
  10   2  -3 -21.216 25.0809   1
  10   2  -3 13.2069 23.3241   1
 -10  -2   3 4.97405 1.93305   3
   9   2  -3 103.177 6.13935   2
   9   2  -3 91.0657 22.6058   1
  -9  -2   3 110.521 5.28855   3
   8   2  -3 261.131 28.2011   1
   8   2  -3 252.314 8.44541   2
   7   2  -3 -10.819 9.56952   1
   7   2  -3 0.44016 1.08540   2
  -7  -2   3 3.26679 1.40025   3
   6   2  -3 732.576 34.4622   1
   6   2  -3 720.714 19.8297   2
  -6  -2   3 719.997 19.8288   2
  -6  -2   3 731.545 20.2063   3
   5   2  -3 997.947 26.9736   2
   5   2  -3 1053.96 39.6446   1
   5   2  -3 1025.46 38.9062   1
  -5  -2   3 1008.32 27.2896   3
  -5  -2   3 1006.02 26.9565   2
   4   2  -3 2.78725 0.81137   2
   4   2  -3 -0.3613 4.34407   1
   4   2  -3 4.50813 5.22665   1
  -4  -2   3 3.87389 0.91060   3
  -4  -2   3 5.25297 0.85904   2
   3   2  -3 318.926 15.5293   1
   3   2  -3 309.197 8.56566   2
  -3  -2   3 293.875 9.17028   3
  -3  -2   3 325.116 8.58456   2
   2   2  -3 905.283 23.2681   2
   2   2  -3 884.614 29.3032   1
  -2  -2   3 916.255 23.2668   2
  -2  -2   3 879.109 23.5793   3
   1   2  -3 558.536 20.2936   1
   1   2  -3 580.182 14.9014   2
  -1  -2   3 595.600 14.9084   2
  -1  -2   3 570.463 15.2977   3
   0   2  -3 335.872 14.1513   1
   0  -2   3 297.684 13.5418   1
  -1   2  -3 22.3920 0.94953   2
  -1   2  -3 14.8436 4.31057   1
   1  -2   3 22.0125 0.93554   2
   1  -2   3 18.8493 4.54709   1
  -2   2  -3 1171.48 29.5041   2
  -2   2  -3 1146.32 39.7099   1
   2  -2   3 1109.67 38.9197   1
   2  -2   3 1114.36 29.4709   2
  -3   2  -3 10.2775 7.20745   1
  -3   2  -3 12.9366 1.16625   2
  -3   2  -3 10.7548 1.11848   3
   3  -2   3 11.2146 1.02701   2
  -4   2  -3 41.8717 2.06889   3
  -4   2  -3 41.5288 2.34594   2
  -4   2  -3 49.3045 9.68320   1
   4  -2   3 41.9371 9.25082   1
   4  -2   3 41.6279 2.10184   2
  -5   2  -3 20.9942 9.24482   1
  -5   2  -3 17.2420 1.64133   2
  -5   2  -3 19.0774 1.64942   3
   5  -2   3 4.68397 7.97832   1
   5  -2   3 18.2286 1.81296   2
  -6   2  -3 18.2153 1.89515   3
  -6   2  -3 23.1112 11.5568   1
  -6   2  -3 21.1191 1.93771   2
   6  -2   3 22.1788 1.95604   2
   6  -2   3 8.66732 11.1419   1
  -7   2  -3 17.4420 2.26786   2
  -7   2  -3 19.8982 2.08168   3
   7  -2   3 29.1431 14.6217   1
   7  -2   3 15.4514 1.92051   2
  -8   2  -3 7.53155 1.94753   3
  -8   2  -3 29.3976 19.2384   1
   8  -2   3 24.2251 18.3358   1
   8  -2   3 9.68578 1.73217   2
  -9   2  -3 29.6867 38.2442   1
   9  -2   3 9.38793 24.1523   1
 -10   2  -3 1.65726 1.57867   3
  10  -2   3 -25.426 37.7069   1
  10  -2   3 4.32799 1.83673   2
  11   1  -3 -1.1183 1.92516   2
 -11  -1   3 0.80109 1.89683   3
  10   1  -3 -43.926 25.3873   1
  10   1  -3 0.32070 1.60647   2
  10   1  -3 24.5291 23.5308   1
 -10  -1   3 1.23959 1.70632   3
   9   1  -3 39.8754 21.8403   1
   9   1  -3 52.7663 3.59237   2
  -9  -1   3 54.6988 3.77858   3
   8   1  -3 30.7774 15.2689   1
   8   1  -3 15.0173 2.06882   2
  -8  -1   3 15.4361 2.11534   3
   7   1  -3 152.114 19.8608   1
   7   1  -3 166.228 5.95019   2
  -7  -1   3 157.697 5.76712   2
  -7  -1   3 169.913 6.17060   3
   6   1  -3 1.61903 8.99280   1
   6   1  -3 6.16755 1.19325   2
  -6  -1   3 7.40434 1.23389   2
  -6  -1   3 8.55416 1.53922   3
   5   1  -3 113.902 12.9764   1
   5   1  -3 110.243 4.20755   2
  -5  -1   3 97.9727 3.69139   2
  -5  -1   3 91.4396 3.81903   3
   4   1  -3 45.4734 2.23554   2
   4   1  -3 54.7941 8.84609   1
  -4  -1   3 46.8487 2.51378   2
  -4  -1   3 44.8720 2.29260   3
   3   1  -3 33.2063 1.73937   2
   3   1  -3 40.6839 6.58518   1
   3   1  -3 35.6517 6.48437   1
  -3  -1   3 37.2726 2.12959   3
  -3  -1   3 34.6425 1.71900   2
   2   1  -3 205.156 5.63985   2
   2   1  -3 202.970 11.3212   1
  -2  -1   3 204.445 5.63216   2
  -2  -1   3 195.217 5.79358   3
   1   1  -3 905.819 23.4753   2
   1   1  -3 929.495 28.8699   1
  -1  -1   3 930.556 28.9096   1
  -1  -1   3 903.327 23.4755   2
  -1  -1   3 885.594 23.6656   3
   0   1  -3 157.109 8.50663   1
   0   1  -3 163.361 4.31974   2
   0  -1   3 164.607 8.57180   1
   0  -1   3 160.354 4.48798   3
   0  -1   3 165.025 4.31720   2
  -1   1  -3 2.87080 3.27216   1
   1  -1   3 0.99503 0.35041   2
   1  -1   3 -0.3667 2.64682   1
  -2   1  -3 194.815 5.58549   2
  -2   1  -3 205.824 12.1264   1
   2  -1   3 200.063 5.59155   2
   2  -1   3 211.898 12.2022   1
  -3   1  -3 157.406 4.67116   3
  -3   1  -3 160.588 14.7040   1
  -3   1  -3 160.181 4.75133   2
   3  -1   3 151.728 12.1902   1
   3  -1   3 157.259 4.74414   2
  -4   1  -3 23.9095 7.22041   1
  -4   1  -3 25.8336 1.60087   2
  -4   1  -3 23.0331 1.45379   3
   4  -1   3 26.2364 7.19998   1
   4  -1   3 27.2471 1.66718   2
  -5   1  -3 359.673 10.4463   2
  -5   1  -3 384.431 23.1856   1
  -5   1  -3 373.743 10.4585   3
   5  -1   3 340.147 22.1362   1
   5  -1   3 366.211 10.9876   2
  -6   1  -3 -0.1155 0.79348   3
  -6   1  -3 -0.2880 0.75639   2
  -6   1  -3 -3.6979 7.73419   1
   6  -1   3 2.86066 8.69262   1
   6  -1   3 -0.4205 0.85044   2
  -7   1  -3 0.65774 1.02332   3
  -7   1  -3 0.87752 1.01908   2
  -7   1  -3 -17.435 11.2133   1
   7  -1   3 0.17500 1.06798   2
   7  -1   3 -11.805 12.1823   1
  -8   1  -3 2.58093 1.33164   3
  -8   1  -3 -28.668 12.6349   1
   8  -1   3 8.03142 15.7045   1
   8  -1   3 -0.2590 1.13458   2
  -9   1  -3 2.87144 1.41961   3
  -9   1  -3 -22.659 17.9892   1
   9  -1   3 -4.3808 20.3806   1
   9  -1   3 3.14732 1.57100   2
  10  -1   3 24.1577 30.4216   1
 -11   1  -3 -2.2286 1.35687   3
  11  -1   3 2.84984 2.98813   2
  11   0  -3 0.47348 1.80410   2
 -11   0   3 0.11386 1.82548   3
  10   0  -3 4.61122 30.9988   1
  10   0  -3 6.17634 1.85675   2
  10   0  -3 28.3136 29.3854   1
 -10   0   3 5.35064 1.91889   3
   9   0  -3 10.3562 21.5894   1
   9   0  -3 9.66017 2.00205   2
  -9   0   3 4.90488 1.78591   3
   8   0  -3 116.248 21.4688   1
   8   0  -3 85.6805 4.36800   2
  -8   0   3 93.0593 4.65739   3
   7   0  -3 99.2114 4.36723   2
   7   0  -3 104.473 17.5648   1
  -7   0   3 98.9214 4.54522   3
   6   0  -3 48.3145 2.76700   2
   6   0  -3 67.7366 14.2422   1
  -6   0   3 42.1845 2.74762   3
  -6   0   3 44.2309 2.59435   2
   5   0  -3 15.2733 7.95859   1
   5   0  -3 21.5785 1.85089   2
  -5   0   3 19.5429 1.74433   2
  -5   0   3 21.1725 1.82230   3
   4   0  -3 -2.3338 5.29239   1
  -4   0   3 0.30666 0.66109   2
  -4   0   3 4.91821 1.11997   3
   3   0  -3 3093.72 79.9695   2
   3   0  -3 3153.95 90.9461   1
  -3   0   3 3130.78 79.9726   2
  -3   0   3 3042.73 80.1507   3
   2   0  -3 1420.52 37.5664   2
   2   0  -3 1448.38 45.4011   1
   2   0  -3 1506.01 45.8225   1
  -2   0   3 1451.83 37.7272   3
  -2   0   3 1435.48 37.5538   2
   1   0  -3 85.6798 2.53632   2
   1   0  -3 87.9527 6.82570   1
  -1   0   3 77.1610 2.57198   3
  -1   0   3 78.3734 6.55814   1
  -1   0   3 82.8578 2.51716   2
   0   0  -3 2440.83 69.2657   1
   0   0   3 2622.35 69.7552   1
  -1   0  -3 2271.56 62.7237   1
   1   0   3 2251.84 62.7366   1
  -2   0  -3 2720.28 68.8013   3
  -2   0  -3 2674.26 75.5418   1
   2   0   3 2667.28 75.5007   1
   2   0   3 2684.58 69.0193   2
  -3   0  -3 978.018 25.2113   3
  -3   0  -3 958.326 33.6282   1
   3   0   3 956.092 25.4030   2
   3   0   3 992.110 33.7221   1
  -4   0  -3 589.184 25.1356   1
  -4   0  -3 556.515 14.9477   3
  -4   0  -3 561.950 15.1446   2
   4   0   3 538.561 15.1160   2
   4   0   3 564.499 24.8298   1
  -5   0  -3 12.6454 1.36814   3
  -5   0  -3 12.7744 6.51849   1
  -5   0  -3 11.4598 1.33569   2
   5   0   3 14.9975 7.14538   1
   5   0   3 10.6650 1.20139   2
  -6   0  -3 14.3422 1.46552   3
  -6   0  -3 -4.1472 6.56917   1
  -6   0  -3 10.7623 1.14995   2
   6   0   3 11.5082 1.44202   2
   6   0   3 5.06731 7.40998   1
  -7   0  -3 39.2940 12.2594   1
  -7   0  -3 52.0560 2.64068   3
   7   0   3 44.0760 2.88520   2
   7   0   3 61.0005 13.8935   1
  -8   0  -3 36.9202 14.6407   1
  -8   0  -3 26.8943 2.24112   3
   8   0   3 37.2379 2.76579   2
   8   0   3 26.0255 14.5782   1
  -9   0  -3 1.75211 1.28944   3
  -9   0  -3 -20.191 14.7464   1
   9   0   3 -1.6189 19.2010   1
   9   0   3 5.90500 2.50625   2
 -10   0  -3 -11.676 23.2957   1
 -10   0  -3 -1.7534 1.14132   3
  10   0   3 9.53123 45.6464   1
  10   0   3 0.71086 1.42612   2
 -11   0  -3 4.64656 1.73219   3
  11   0   3 1.63142 1.70826   2
  10  -1  -3 54.8639 39.8319   1
  10  -1  -3 28.0326 36.2975   1
   9  -1  -3 -53.996 23.9762   1
   9  -1  -3 3.96036 1.71285   2
  -9   1   3 1.80049 1.74626   3
   8  -1  -3 25.7183 19.7922   1
   7  -1  -3 111.564 21.3121   1
   7  -1  -3 72.1354 3.78465   2
  -7   1   3 70.9564 3.97119   3
   6  -1  -3 47.8129 13.5961   1
   6  -1  -3 55.2954 3.08448   2
  -6   1   3 69.0100 13.7344   1
  -6   1   3 54.5976 3.19877   3
  -6   1   3 46.0280 3.35669   2
   5  -1  -3 72.0361 3.27447   2
   5  -1  -3 50.8470 11.5833   1
  -5   1   3 75.7931 3.45783   3
  -5   1   3 69.4805 12.6541   1
  -5   1   3 76.5017 3.21754   2
   4  -1  -3 43.4826 9.17153   1
  -4   1   3 36.8389 2.04134   2
  -4   1   3 36.1615 2.14492   3
  -4   1   3 46.2857 9.51021   1
   3  -1  -3 28.4794 7.50970   1
   3  -1  -3 20.1615 1.51528   2
  -3   1   3 21.1317 1.50270   2
  -3   1   3 11.9798 6.29994   1
  -3   1   3 19.5263 1.53445   3
   2  -1  -3 20.4114 5.42833   1
  -2   1   3 12.2065 1.12756   2
  -2   1   3 11.2677 4.95057   1
  -2   1   3 10.3793 1.11895   3
   1  -1  -3 3.75746 3.07670   1
   1  -1  -3 6.48956 0.64252   2
   1  -1  -3 9.90902 3.81067   1
  -1   1   3 5.35928 0.65306   3
  -1   1   3 5.90257 0.61555   2
   0  -1  -3 1314.87 38.1314   1
   0  -1  -3 1311.09 33.5362   2
   0   1   3 1281.08 33.5244   2
   0   1   3 1305.12 33.5205   3
   0   1   3 1285.77 38.1828   1
  -1  -1  -3 3710.06 100.456   1
   1   1   3 3855.88 100.715   1
   2   1   3 84.1302 6.34544   1
  -3  -1  -3 100.091 2.86774   3
  -3  -1  -3 94.8625 7.82291   1
   3   1   3 100.824 3.22714   2
   3   1   3 98.9972 7.70791   1
  -4  -1  -3 489.380 13.2645   3
  -4  -1  -3 498.921 21.4147   1
   4   1   3 500.989 13.5756   2
   4   1   3 510.082 21.5972   1
  -5  -1  -3 11.5346 5.64106   1
   5   1   3 4.08632 0.89461   2
   5   1   3 -3.2121 5.03702   1
  -6  -1  -3 283.827 8.32435   3
  -6  -1  -3 290.701 18.7886   1
   6   1   3 274.636 20.2138   1
   6   1   3 286.071 8.56539   2
  -7  -1  -3 0.19396 6.99374   1
  -7  -1  -3 1.64029 1.01379   3
   7   1   3 -7.7360 8.10255   1
   7   1   3 3.33160 1.19024   2
  -8  -1  -3 0.44611 0.99480   3
  -8  -1  -3 -7.1188 8.83215   1
   8   1   3 -2.0893 10.5547   1
   8   1   3 0.81957 1.13940   2
  -9  -1  -3 5.43900 1.38080   3
  -9  -1  -3 -13.438 14.2138   1
   9   1   3 2.20503 1.42203   2
   9   1   3 3.77153 15.5600   1
 -10  -1  -3 5.26361 19.6707   1
  10   1   3 17.6975 35.6749   1
 -11  -1  -3 0.70128 1.46906   3
  11   1   3 0.74903 1.58471   2
  10  -2  -3 46.0467 50.0618   1
   9  -2  -3 41.6225 30.9973   1
   8  -2  -3 45.1535 23.1044   1
   8  -2  -3 45.9243 3.40309   2
  -8   2   3 33.9880 3.24197   3
   7  -2  -3 -3.3457 14.9892   1
   7  -2  -3 8.30807 1.65340   2
  -7   2   3 5.13034 1.87752   3
  -7   2   3 -10.041 13.8974   1
   6  -2  -3 665.401 38.0158   1
   6  -2  -3 632.026 17.7938   2
  -6   2   3 627.776 36.8261   1
  -6   2   3 652.307 18.2991   3
  -6   2   3 582.764 17.6544   2
   5  -2  -3 143.938 18.5765   1
   5  -2  -3 142.958 5.30539   2
  -5   2   3 154.283 5.65948   3
  -5   2   3 147.645 5.29999   2
  -5   2   3 191.780 19.1238   1
   4  -2  -3 375.401 10.5142   2
   4  -2  -3 367.064 23.3341   1
  -4   2   3 365.497 10.7928   3
  -4   2   3 347.612 10.4191   2
  -4   2   3 359.673 23.1419   1
   3  -2  -3 105.320 15.1394   1
  -3   2   3 118.547 4.25301   3
  -3   2   3 122.695 4.05656   2
   2  -2  -3 59.4660 8.64658   1
   2  -2  -3 57.4873 2.34107   2
  -2   2   3 59.6240 2.43434   3
  -2   2   3 51.2589 2.25231   2
  -2   2   3 54.8259 8.41988   1
   1  -2  -3 334.412 9.19866   2
   1  -2  -3 344.605 16.1096   1
  -1   2   3 331.544 16.2044   1
  -1   2   3 336.052 9.34061   3
   0  -2  -3 0.68524 2.53502   1
   0  -2  -3 2.61236 0.55081   2
   0   2   3 2.07227 0.56102   3
   0   2   3 1.29990 0.46288   2
   1   2   3 2071.42 56.6911   1
   1   2   3 2051.86 53.0400   2
  -2  -2  -3 1425.51 39.6675   1
   2   2   3 1419.29 41.5493   1
  -3  -2  -3 544.305 14.6096   3
  -3  -2  -3 569.595 18.8640   1
   3   2   3 570.194 19.6154   1
  -4  -2  -3 296.860 14.1058   1
  -4  -2  -3 280.992 8.15345   3
   4   2   3 262.374 14.0366   1
   4   2   3 348.343 8.89218   2
  -5  -2  -3 -0.7819 3.98646   1
  -5  -2  -3 0.82725 0.56355   3
   5   2   3 0.65633 4.60760   1
  -6  -2  -3 129.008 4.25142   3
  -6  -2  -3 129.661 12.4464   1
   6   2   3 130.608 4.62052   2
   6   2   3 126.960 12.7490   1
  -7  -2  -3 58.6911 10.8001   1
  -7  -2  -3 58.2891 2.65568   3
   7   2   3 53.2527 2.97871   2
   7   2   3 57.8355 11.9204   1
  -8  -2  -3 12.9893 10.1476   1
  -8  -2  -3 1.84931 1.08002   3
   8   2   3 -0.5514 10.4047   1
   8   2   3 0.21609 1.14347   2
  -9  -2  -3 12.6200 1.86192   3
  -9  -2  -3 28.4618 12.8959   1
   9   2   3 12.3096 1.78052   2
   9   2   3 2.40578 14.7404   1
 -10  -2  -3 12.2811 16.6717   1
 -10  -2  -3 2.60431 1.64058   3
  10   2   3 1.58340 23.4979   1
  10   2   3 4.56957 1.53630   2
 -11  -2  -3 -1.3256 1.18087   3
  11   2   3 0.76056 1.46230   2
 -12  -2  -3 1.20433 1.61861   3
  12   2   3 2.23131 1.98905   2
   9  -3  -3 -3.1106 36.3666   1
   9  -3  -3 -1.7858 1.55017   2
  -9   3   3 2.17341 1.82506   3
   8  -3  -3 27.6356 25.8256   1
   7  -3  -3 -27.300 17.2085   1
  -7   3   3 2.31627 1.48772   3
  -7   3   3 9.14116 16.4490   1
   6  -3  -3 1.18502 1.26021   2
   6  -3  -3 -1.7172 12.9668   1
  -6   3   3 16.5161 14.5299   1
  -6   3   3 -0.7591 1.14605   3
   5  -3  -3 452.849 30.1115   1
   5  -3  -3 459.338 13.2410   2
  -5   3   3 439.087 30.1610   1
  -5   3   3 460.614 13.7265   3
   4  -3  -3 -8.5819 7.66981   1
   4  -3  -3 0.55100 0.99710   2
  -4   3   3 -0.5183 0.89491   2
  -4   3   3 1.31899 1.07861   3
  -4   3   3 -6.1127 7.62416   1
   3  -3  -3 404.151 23.2458   1
  -3   3   3 366.193 34.5180   1
  -3   3   3 388.783 10.9813   2
  -3   3   3 382.991 11.3064   3
   2  -3  -3 71.7026 2.78033   2
   2  -3  -3 62.8731 9.40536   1
  -2   3   3 66.3629 2.97558   2
  -2   3   3 79.5306 10.5319   1
  -2   3   3 74.7155 2.97443   3
   1  -3  -3 167.872 5.02216   2
   1  -3  -3 155.971 11.5932   1
  -1   3   3 174.230 5.04948   2
  -1   3   3 165.392 5.22239   3
  -1   3   3 161.154 12.0905   1
   0  -3  -3 11.1004 3.51466   1
   0  -3  -3 9.87069 3.83136   1
   0  -3  -3 9.45691 0.87147   2
   0   3   3 9.66140 3.94318   1
   0   3   3 8.03996 0.78187   2
  -1  -3  -3 646.777 21.1665   1
  -1  -3  -3 670.297 17.5228   2
  -1  -3  -3 674.469 21.0865   1
   1   3   3 668.870 17.5014   2
   1   3   3 659.163 21.8560   1
  -2  -3  -3 8.79521 0.84363   2
   2   3   3 5.33000 2.12841   1
   2   3   3 8.94628 0.80031   2
   3   3   3 283.652 10.7755   1
   3   3   3 293.165 8.08191   2
  -4  -3  -3 865.429 26.1521   1
   4   3   3 866.123 27.9414   1
   4   3   3 860.615 22.8984   2
  -5  -3  -3 114.827 8.59246   1
  -5  -3  -3 120.114 3.77314   3
   5   3   3 120.570 9.62048   1
  -6  -3  -3 315.919 9.27929   3
  -6  -3  -3 349.624 17.2273   1
   6   3   3 344.493 18.6171   1
   6   3   3 316.901 9.56806   2
  -7  -3  -3 0.45031 0.83973   3
  -7  -3  -3 -0.0918 5.81094   1
   7   3   3 -4.3899 7.16834   1
   7   3   3 0.38480 0.98418   2
  -8  -3  -3 66.9071 3.14018   3
  -8  -3  -3 68.0584 11.6712   1
   8   3   3 58.5260 13.5941   1
   8   3   3 68.2145 3.49886   2
  -9  -3  -3 17.3791 1.96895   3
   9   3   3 14.9121 1.95388   2
   9   3   3 -2.1472 12.1609   1
 -10  -3  -3 9.00615 1.67631   3
  10   3   3 5.22322 1.61261   2
  10   3   3 38.5516 22.2965   1
 -11  -3  -3 9.43971 1.88383   3
  11   3   3 6.42594 1.85636   2
 -12  -3  -3 4.29236 1.79375   3
  12   3   3 -0.1337 2.11324   2
   9  -4  -3 -4.6536 50.8347   1
   9  -4  -3 -50.450 47.0113   1
   9  -4  -3 6.90461 2.67452   2
  -9   4   3 5.58182 2.60709   3
   8  -4  -3 2.50569 1.56687   2
   8  -4  -3 1.02278 31.3364   1
  -8   4   3 2.71362 1.79802   3
   7  -4  -3 35.0008 23.6049   1
   7  -4  -3 13.2434 1.96029   2
  -7   4   3 41.6340 21.6201   1
  -7   4   3 16.9076 2.69141   3
   6  -4  -3 11.2195 1.72074   2
   6  -4  -3 8.10534 16.3077   1
  -6   4   3 13.3600 16.0784   1
  -6   4   3 18.4906 2.75438   3
   5  -4  -3 -2.3367 11.3904   1
  -5   4   3 3.23872 12.2445   1
   4  -4  -3 231.988 7.28899   2
   4  -4  -3 219.258 21.4024   1
  -4   4   3 217.742 21.6489   1
  -4   4   3 226.165 7.71925   3
  -4   4   3 223.135 7.23430   2
   3  -4  -3 51.0957 2.66523   2
   3  -4  -3 31.7017 9.30044   1
  -3   4   3 50.0810 2.81610   3
  -3   4   3 53.7611 2.61806   2
  -3   4   3 64.9388 15.2277   1
   2  -4  -3 196.644 16.5135   1
   2  -4  -3 210.174 6.34338   2
  -2   4   3 199.266 6.62886   3
  -2   4   3 210.721 6.33658   2
  -2   4   3 230.002 17.3124   1
   1  -4  -3 332.081 9.23584   2
  -1   4   3 345.022 19.3507   1
  -1   4   3 323.727 9.21798   2
  -1   4   3 321.581 9.54417   3
   0  -4  -3 39.8750 5.99771   1
   0  -4  -3 34.0335 5.91422   1
   0  -4  -3 41.4709 1.86494   2
   0   4   3 38.8218 1.85830   2
   0   4   3 41.1050 6.73428   1
  -1  -4  -3 447.684 16.8250   1
  -1  -4  -3 445.924 16.5398   1
  -1  -4  -3 451.049 12.2637   2
   1   4   3 457.105 17.8658   1
   1   4   3 464.899 12.2553   2
  -2  -4  -3 2.37749 0.56799   2
   2   4   3 5.31061 0.78609   2
   3   4   3 161.429 6.32771   1
   3   4   3 152.842 4.75289   2
   4   4   3 377.850 13.5383   1
   4   4   3 370.634 10.4108   2
   5   4   3 147.484 9.59482   1
   5   4   3 141.005 5.14456   2
  -6  -4  -3 7.16597 1.02743   3
   6   4   3 4.83782 1.06497   2
   6   4   3 10.1416 5.06614   1
  -7  -4  -3 6.57582 1.19356   3
   7   4   3 11.4524 1.48995   2
   7   4   3 11.3073 6.85902   1
  -8  -4  -3 31.6607 2.21981   3
   8   4   3 32.4793 2.69261   2
   8   4   3 25.4788 10.1872   1
   9   4   3 -9.5989 11.3502   1
   9   4   3 5.37707 1.46275   2
 -10  -4  -3 22.0146 2.32309   3
  10   4   3 1.33256 22.1268   1
  10   4   3 26.2872 2.60925   2
 -11  -4  -3 4.05809 1.52435   3
  11   4   3 0.94657 1.47580   2
 -12  -4  -3 9.89966 2.10050   3
  12   4   3 7.27335 2.13259   2
   8  -5  -3 9.22762 2.05580   2
   8  -5  -3 21.0555 40.7131   1
  -8   5   3 1.70589 1.95389   3
   7  -5  -3 -20.214 26.5985   1
   7  -5  -3 1.03239 1.57135   2
  -7   5   3 0.48028 1.55958   3
  -7   5   3 -36.640 25.8405   1
   6  -5  -3 28.9835 19.4885   1
  -6   5   3 29.2092 19.3599   1
   5  -5  -3 -19.556 15.2983   1
   5  -5  -3 3.40487 1.28927   2
  -5   5   3 3.14874 1.63758   3
  -5   5   3 -30.487 13.8601   1
   4  -5  -3 17.9282 1.94668   2
   4  -5  -3 29.9309 13.7394   1
  -4   5   3 26.1473 12.4604   1
  -4   5   3 23.0336 2.12403   2
   3  -5  -3 -3.7982 8.38379   1
   3  -5  -3 1.93650 1.05339   2
  -3   5   3 -4.7753 10.1499   1
  -3   5   3 -0.4801 1.14807   3
  -3   5   3 1.10768 0.88183   2
   2  -5  -3 74.3894 12.0376   1
   2  -5  -3 62.9421 2.79099   2
  -2   5   3 56.4971 11.3354   1
  -2   5   3 56.9033 2.68320   2
  -2   5   3 62.9788 3.09415   3
   1  -5  -3 -2.7908 5.70737   1
  -1   5   3 3.21250 5.72217   1
  -1   5   3 -0.1494 0.61245   2
   0  -5  -3 35.1062 6.97382   1
   0  -5  -3 42.7014 1.99092   2
   0   5   3 40.0262 1.93104   2
   0   5   3 45.3342 7.74953   1
  -1  -5  -3 289.507 8.29837   2
  -1  -5  -3 296.079 13.3705   1
  -1  -5  -3 298.797 14.2237   1
   1   5   3 288.373 8.26842   2
   1   5   3 307.235 15.2705   1
  -2  -5  -3 754.818 19.5627   2
  -2  -5  -3 771.988 20.3668   1
  -2  -5  -3 736.055 20.2219   1
   2   5   3 728.028 19.5227   2
   2   5   3 676.544 24.2292   1
   3   5   3 20.6439 1.40293   2
   4   5   3 0.54907 0.67017   2
   4   5   3 1.16989 1.37290   1
   5   5   3 288.557 8.52637   2
   5   5   3 283.008 8.54634   2
   5   5   3 311.461 12.2490   1
   6   5   3 469.326 13.1327   2
   6   5   3 459.085 19.3305   1
   7   5   3 187.973 6.26305   2
   7   5   3 173.231 20.0894   1
  -8  -5  -3 213.790 6.94633   3
   8   5   3 212.668 17.3941   1
   8   5   3 217.563 7.26639   2
  -9  -5  -3 55.7692 3.05098   3
   9   5   3 66.4607 14.2377   1
   9   5   3 58.1926 3.45099   2
 -10  -5  -3 37.5510 2.79795   3
  10   5   3 37.9133 4.23350   2
 -11  -5  -3 0.97964 1.38282   3
  11   5   3 0.65386 1.44784   2
 -12  -5  -3 8.71788 2.07486   3
  12   5   3 11.6289 2.28905   2
   7  -6  -3 8.35403 1.77163   2
   7  -6  -3 14.2204 39.0528   1
  -7   6   3 11.7221 2.54803   3
  -7   6   3 -3.8997 34.8356   1
   6  -6  -3 5.68675 23.8811   1
   6  -6  -3 3.09991 1.45625   2
  -6   6   3 -0.2753 1.70209   3
   5  -6  -3 15.8756 16.3770   1
  -5   6   3 5.72250 17.6038   1
   4  -6  -3 188.065 6.44881   2
   4  -6  -3 144.644 25.3605   1
  -4   6   3 159.461 24.2775   1
  -4   6   3 189.720 7.15987   3
   3  -6  -3 7.33633 10.8779   1
   3  -6  -3 13.7997 1.65007   2
  -3   6   3 14.9431 1.59706   2
  -3   6   3 6.69684 19.4662   1
   2  -6  -3 4.47099 1.06469   2
   2  -6  -3 17.5212 11.4880   1
  -2   6   3 2.90988 1.35263   3
  -2   6   3 14.4452 9.65351   1
  -2   6   3 2.55490 0.97482   2
   1  -6  -3 26.9088 1.92212   2
   1  -6  -3 29.8279 8.74282   1
  -1   6   3 30.5880 1.89175   2
  -1   6   3 17.1814 7.92679   1
   0  -6  -3 140.563 12.6272   1
   0   6   3 132.055 4.29338   2
   0   6   3 106.616 13.0013   1
  -1  -6  -3 29.2655 1.72516   2
  -1  -6  -3 22.4576 5.37491   1
  -1  -6  -3 23.8719 5.01054   1
   1   6   3 26.9696 1.86014   2
   1   6   3 35.1823 6.76526   1
  -2  -6  -3 27.8020 3.15786   1
  -2  -6  -3 27.2587 1.64739   2
  -2  -6  -3 29.5087 3.54213   1
   2   6   3 23.8937 6.49590   1
   2   6   3 26.0007 1.56287   2
   3   6   3 34.6020 4.30118   1
   3   6   3 27.9473 1.60979   2
   4   6   3 0.37637 0.61619   2
   5   6   3 0.58597 0.67846   2
   6   6   3 105.131 3.87513   2
   6   6   3 98.3225 7.99639   1
   6   6   3 98.8618 3.88766   2
   7   6   3 28.5444 8.02659   1
   7   6   3 28.5641 2.28502   2
   8   6   3 0.21827 1.11815   2
   8   6   3 -0.4137 7.30885   1
   9   6   3 6.72436 10.0900   1
  10   6   3 39.3020 25.7694   1
  10   6   3 38.7326 4.71567   2
  11   6   3 0.24495 1.33452   2
  12   6   3 4.57947 1.83662   2
   6  -7  -3 -15.398 33.8213   1
   6  -7  -3 0.64026 1.26379   2
  -6   7   3 62.3880 34.8273   1
  -6   7   3 3.01665 2.26636   3
   5  -7  -3 38.6591 22.6014   1
   5  -7  -3 3.69471 1.36242   2
  -5   7   3 2.54822 1.74546   3
  -5   7   3 -5.0539 22.8965   1
   4  -7  -3 2.08295 15.5407   1
   4  -7  -3 -2.1016 0.91233   2
  -4   7   3 -2.1099 1.14903   3
  -4   7   3 -2.8246 18.7231   1
   3  -7  -3 0.87358 1.06032   2
   3  -7  -3 3.19677 12.7898   1
  -3   7   3 1.95486 1.45973   3
  -3   7   3 -0.9574 0.92143   2
   2  -7  -3 213.726 6.80634   2
  -2   7   3 205.841 6.75123   2
  -2   7   3 203.007 7.56491   3
  -2   7   3 200.688 24.2403   1
   1  -7  -3 53.2283 2.71875   2
   1  -7  -3 48.5609 11.1448   1
  -1   7   3 47.5095 12.5144   1
  -1   7   3 57.2957 2.69458   2
   0  -7  -3 -0.7520 7.42535   1
   0  -7  -3 0.56603 0.77149   2
   0  -7  -3 3.39036 5.75318   1
   0   7   3 6.50344 7.31321   1
   0   7   3 1.00382 0.74022   2
  -1  -7  -3 34.7652 2.03201   2
  -1  -7  -3 35.4237 6.77682   1
  -1  -7  -3 29.0378 6.14306   1
   1   7   3 36.2084 1.98707   2
   1   7   3 41.3867 8.34309   1
  -2  -7  -3 2.96606 2.56012   1
  -2  -7  -3 1.77644 2.79745   1
   2   7   3 4.24469 5.15308   1
   2   7   3 3.66859 0.81938   2
   3   7   3 7.30862 1.01905   2
   3   7   3 4.22085 3.92551   1
   4   7   3 1.30925 0.65151   2
   5   7   3 42.7808 2.25096   2
   6   7   3 75.9197 3.39286   2
   6   7   3 86.0054 3.39624   2
   7   7   3 47.8403 2.78484   2
   7   7   3 45.0308 6.24526   1
   7   7   3 49.8694 2.70392   2
   8   7   3 -3.1148 6.69300   1
   8   7   3 3.40575 1.03061   2
   8   7   3 1.76941 1.21831   2
   9   7   3 3.97955 9.38296   1
   9   7   3 9.66785 1.66609   2
  10   7   3 -26.742 12.5739   1
  10   7   3 -2.5624 1.56170   2
  11   7   3 21.4976 2.34576   2
  12   7   3 25.6649 23.9223   1
   6  -8  -3 0.31252 1.31717   2
  -6   8   3 2.87437 2.26361   3
   5  -8  -3 42.7885 52.4646   1
   5  -8  -3 30.7059 2.72197   2
  -5   8   3 21.9473 3.17366   3
  -5   8   3 -15.446 35.7761   1
   4  -8  -3 25.0477 20.0912   1
  -4   8   3 24.6116 26.0572   1
   3  -8  -3 18.6956 1.92295   2
  -3   8   3 27.0959 2.84688   3
  -3   8   3 15.5138 30.9440   1
   2  -8  -3 22.7100 12.9016   1
  -2   8   3 14.2738 12.6379   1
   1  -8  -3 1.92650 9.84061   1
   1  -8  -3 14.7564 1.57331   2
  -1   8   3 17.7232 1.73213   2
  -1   8   3 16.1816 11.0330   1
   0  -8  -3 265.138 19.3079   1
   0  -8  -3 304.186 8.93619   2
   0   8   3 297.981 8.88561   2
   0   8   3 327.968 24.1418   1
  -1  -8  -3 23.1336 6.42572   1
  -1  -8  -3 25.1025 1.94443   2
  -1  -8  -3 36.7864 7.68888   1
   1   8   3 27.1892 1.87478   2
   1   8   3 27.4707 9.19340   1
  -2  -8  -3 0.93372 3.12395   1
  -2  -8  -3 -5.0240 3.18929   1
   2   8   3 -2.9272 5.90102   1
   2   8   3 2.08216 0.82068   2
   3   8   3 18.5134 1.60847   2
   3   8   3 22.8874 6.00638   1
   4   8   3 1.85715 0.84784   2
   5   8   3 2.18375 0.87331   2
   6   8   3 231.047 7.32001   2
   6   8   3 231.919 7.26369   2
   7   8   3 20.4034 1.93102   2
   7   8   3 20.8026 1.93417   2
   8   8   3 -2.7365 5.47371   1
   8   8   3 -8.7172 5.22924   1
   8   8   3 2.39767 1.17901   2
   8   8   3 2.88277 0.97206   2
   9   8   3 -0.1352 1.05375   2
   9   8   3 -7.8131 10.1651   1
   9   8   3 -13.765 7.96070   1
  10   8   3 37.1798 3.03361   2
  10   8   3 35.9300 12.7954   1
  11   8   3 -0.9017 1.34085   2
  11   8   3 -23.867 14.8654   1
  12   8   3 13.5047 22.4707   1
   5  -9  -3 4.62730 1.50970   2
  -5   9   3 -0.6847 1.94156   3
   4  -9  -3 4.38709 1.54898   2
  -4   9   3 0.89367 1.57485   3
  -4   9   3 11.1931 34.9575   1
   3  -9  -3 -1.8513 21.5562   1
   3  -9  -3 9.87489 1.66296   2
  -3   9   3 8.06704 28.2390   1
  -3   9   3 11.0007 2.23548   3
   2  -9  -3 3.21675 17.7534   1
   2  -9  -3 1.70439 1.09455   2
   2  -9  -3 5.91577 15.2044   1
  -2   9   3 -11.162 18.3683   1
  -2   9   3 2.14604 1.43116   3
   1  -9  -3 2.47517 1.13668   2
   1  -9  -3 -12.990 11.3493   1
  -1   9   3 1.85152 1.58486   3
  -1   9   3 3.38636 0.99687   2
  -1   9   3 -2.7988 14.3352   1
   0  -9  -3 7.25820 8.85786   1
   0  -9  -3 4.21221 1.10972   2
   0  -9  -3 18.5625 10.2513   1
   0   9   3 3.26735 0.96441   2
   0   9   3 -15.441 10.8445   1
  -1  -9  -3 16.1745 7.18175   1
  -1  -9  -3 16.7338 7.95312   1
  -1  -9  -3 14.9453 1.58337   2
   1   9   3 17.6675 1.73485   2
   1   9   3 25.5964 15.4332   1
  -2  -9  -3 105.384 8.00717   1
  -2  -9  -3 103.558 4.06159   2
  -2  -9  -3 111.374 7.72126   1
   2   9   3 127.909 15.7624   1
   2   9   3 113.043 4.04821   2
   3   9   3 159.347 14.4210   1
   3   9   3 181.819 5.71004   2
   4   9   3 98.6028 10.0506   1
   4   9   3 100.499 3.78389   2
   5   9   3 185.611 6.02010   2
   6   9   3 35.5617 2.24147   2
   7   9   3 21.9478 2.09354   2
   8   9   3 161.859 5.86651   2
   9   9   3 10.4180 1.67753   2
  10   9   3 -0.8668 1.17477   2
  10   9   3 25.9788 9.70207   1
  10   9   3 -0.5430 9.02640   1
  11   9   3 13.3880 14.3261   1
  12   9   3 2.31297 1.55825   2
  12   9   3 -0.2564 28.1034   1
   4 -10  -3 -1.4910 1.25430   2
  -4  10   3 0.96684 1.89203   3
   3 -10  -3 40.5432 3.06909   2
  -3  10   3 45.2132 4.14548   3
  -3  10   3 81.0096 34.0804   1
   2 -10  -3 14.5758 1.88003   2
   2 -10  -3 17.8563 21.7800   1
  -2  10   3 -15.884 25.3687   1
  -2  10   3 19.5612 3.16427   3
   1 -10  -3 -9.3676 16.0826   1
   1 -10  -3 13.4743 13.8127   1
   1 -10  -3 13.9967 1.72822   2
  -1  10   3 6.55820 19.1342   1
  -1  10   3 10.7566 2.39895   3
   0 -10  -3 5.70007 11.8116   1
   0  10   3 8.65134 15.2024   1
  -1 -10  -3 32.1953 2.23241   2
  -1 -10  -3 17.8942 8.73546   1
  -1 -10  -3 17.0181 9.19541   1
   1  10   3 26.8897 1.98238   2
   1  10   3 30.0849 13.3198   1
  -2 -10  -3 101.340 6.55025   1
  -2 -10  -3 122.478 4.35710   2
   2  10   3 117.101 4.22859   2
   2  10   3 126.160 16.0720   1
   3  10   3 10.4893 9.04900   1
   4  10   3 51.4205 2.55465   2
   4  10   3 54.0829 9.14234   1
   5  10   3 17.2330 1.70793   2
   6  10   3 31.6699 2.14463   2
   7  10   3 52.2575 2.88263   2
   7  10   3 47.7217 2.73447   2
   8  10   3 10.3187 1.54546   2
   9  10   3 4.78546 1.36360   2
  10  10   3 40.5982 3.14924   2
  11  10   3 1.43623 1.50240   2
  12  10   3 15.9135 2.44510   2
   2 -11  -3 -4.2515 33.1105   1
   2 -11  -3 9.49470 1.54699   2
  -2  11   3 7.04456 2.46830   3
   1 -11  -3 80.2437 3.77851   2
   1 -11  -3 35.2822 22.0569   1
  -1  11   3 87.6042 5.23087   3
  -1  11   3 51.1594 27.9934   1
   0 -11  -3 -19.917 14.9510   1
   0 -11  -3 3.18882 1.10812   2
   0  11   3 -0.2231 21.0810   1
  -1 -11  -3 0.70512 11.5479   1
  -1 -11  -3 0.63240 0.90275   2
  -1 -11  -3 -1.6859 9.09921   1
   1  11   3 2.33876 1.08016   2
   1  11   3 -6.2310 16.4840   1
  -2 -11  -3 -1.9664 0.78796   2
   2  11   3 -0.7931 0.90124   2
   2  11   3 -14.689 12.8989   1
   3  11   3 -6.6614 11.0337   1
   3  11   3 0.33643 0.90391   2
   4  11   3 1.59325 10.4762   1
   4  11   3 2.94270 0.93546   2
   5  11   3 -0.5726 0.76601   2
   6  11   3 1.96845 0.98739   2
   7  11   3 1.11530 0.99909   2
   8  11   3 3.82174 1.22333   2
   9  11   3 16.1087 2.18380   2
  10  11   3 68.2900 3.79138   2
  11  11   3 12.2790 1.94151   2
   1 -12  -3 43.0489 2.95277   2
  -1  12   3 59.0050 4.75342   3
   0 -12  -3 -20.220 19.7247   1
   0 -12  -3 2.40256 1.20849   2
   0  12   3 -0.5591 1.70096   3
   0  12   3 40.0193 35.6717   1
  -1 -12  -3 -5.4932 11.7428   1
  -1 -12  -3 1.28082 1.03737   2
   1  12   3 1.44318 23.2558   1
  -2 -12  -3 9.70250 1.42891   2
   2  12   3 7.01155 1.26999   2
   2  12   3 36.7496 18.6414   1
   3  12   3 10.1973 15.2737   1
   3  12   3 4.55304 1.22698   2
   4  12   3 4.26901 1.16155   2
   5  12   3 46.2447 2.60891   2
   6  12   3 13.0185 1.67123   2
   6  12   3 10.6545 1.52266   2
   7  12   3 2.62811 1.12377   2
   8  12   3 2.08252 1.12769   2
   9  12   3 0.70421 1.10604   2
  10  12   3 1.14415 1.35670   2
  -1 -13  -3 15.2033 1.78079   2
   2  13   3 21.7042 44.3604   1
   6  13   3 1.37554 1.10135   2
   7  13   3 26.6234 2.33441   2
   9  13   3 -0.0368 1.11195   2
   6  14   3 11.5227 1.57863   2
   7  14   3 24.5604 2.17127   2
   7  13  -4 28.0182 26.6695   1
   6  13  -4 15.5397 18.7927   1
   5  13  -4 -0.8270 20.1255   1
   4  13  -4 10.8780 23.4946   1
   3  13  -4 9.43417 25.8177   1
   9  12  -4 49.9213 27.2869   1
   8  12  -4 1.23525 0.88538   2
   8  12  -4 -0.8847 19.7195   1
   7  12  -4 12.6260 15.0597   1
   6  12  -4 23.2265 15.2302   1
   4  12  -4 -8.2811 16.4641   1
   3  12  -4 28.5427 18.4909   1
   2  12  -4 40.7011 22.7683   1
  -2 -12   4 42.3762 10.4951   1
   1  12  -4 11.7093 25.9363   1
  -1 -12   4 -3.3543 15.6395   1
   0  12  -4 27.9964 31.2666   1
  10  11  -4 8.26872 1.67900   2
   9  11  -4 -4.8314 15.8648   1
   9  11  -4 0.53398 0.95423   2
   8  11  -4 21.8692 1.85324   2
   8  11  -4 14.6230 13.8626   1
   7  11  -4 32.1214 1.75004   2
   7  11  -4 28.7175 13.3353   1
   7  11  -4 34.0822 2.33574   2
   5  11  -4 62.6206 14.2597   1
   4  11  -4 12.0241 13.5217   1
   3  11  -4 40.7785 15.4580   1
   2  11  -4 58.1712 16.7541   1
   1  11  -4 -20.474 16.9449   1
  -1 -11   4 -21.806 11.9843   1
   0  11  -4 -34.488 20.1415   1
   0 -11   4 3.87733 16.5340   1
  -1  11  -4 42.0091 27.3325   1
   1 -11   4 19.9869 22.2371   1
  -2  11  -4 0.53279 56.5851   1
   2 -11   4 -11.413 28.7466   1
  -3  11  -4 22.1235 3.58590   3
  11  10  -4 21.5580 2.30563   2
  10  10  -4 6.90979 2.66861   2
  10  10  -4 10.9647 18.8727   1
   9  10  -4 4.80845 1.27257   2
   9  10  -4 -4.7028 14.5358   1
   8  10  -4 -17.201 12.6014   1
   7  10  -4 17.1382 11.0726   1
   7  10  -4 26.5863 1.85656   2
   7  10  -4 28.4857 1.82688   2
   6  10  -4 13.2052 1.11775   2
   6  10  -4 -0.2967 9.94820   1
   6  10  -4 7.74614 0.92574   2
   5  10  -4 155.288 18.7283   1
   4  10  -4 61.3907 12.5706   1
   3  10  -4 4.28239 9.98674   1
  -3 -10   4 1.46589 6.53967   1
   2  10  -4 12.7668 12.8131   1
   1  10  -4 14.3509 13.9400   1
  -1 -10   4 2.23404 10.0166   1
   0  10  -4 90.0625 19.7745   1
   0 -10   4 81.8670 15.7773   1
  -1  10  -4 4.66731 20.3651   1
   1 -10   4 -40.730 27.7545   1
  -2  10  -4 22.0990 25.9616   1
   2 -10   4 9.66275 23.3944   1
  -3  10  -4 10.2092 2.14641   3
  -3  10  -4 -2.6326 33.2374   1
   3 -10   4 29.8440 27.8934   1
   3 -10   4 11.6651 1.31262   2
  -4  10  -4 12.9190 2.66174   3
   4 -10   4 13.2691 1.60444   2
  11   9  -4 -11.424 27.0646   1
  10   9  -4 -4.2909 22.0927   1
   9   9  -4 7.32048 14.1725   1
   8   9  -4 31.1459 11.5420   1
   8   9  -4 13.5501 1.64258   2
   8   9  -4 19.5583 1.74611   2
   8   9  -4 39.3532 20.5762   1
   7   9  -4 59.9436 11.8954   1
   7   9  -4 60.0115 2.66632   2
   7   9  -4 63.1624 2.80597   2
   6   9  -4 1.25903 0.78219   2
   6   9  -4 5.34702 8.47833   1
   5   9  -4 -0.3921 0.53584   2
   5   9  -4 1.46535 0.54864   2
   5   9  -4 7.11106 8.39744   1
   4   9  -4 90.7332 12.6353   1
   3   9  -4 51.6933 11.3988   1
  -3  -9   4 45.0529 6.97107   1
   2   9  -4 -4.2402 8.83735   1
  -2  -9   4 -7.6527 6.23287   1
   1   9  -4 36.0850 11.7429   1
  -1  -9   4 16.7171 8.97864   1
   0   9  -4 37.5577 14.0666   1
  -1   9  -4 50.2410 1.95348   2
  -1   9  -4 29.1357 17.8325   1
   1  -9   4 34.0235 14.6366   1
   1  -9   4 50.2638 1.92803   2
  -2   9  -4 15.8303 18.8832   1
   2  -9   4 18.7963 15.7009   1
  -3   9  -4 12.9229 22.7819   1
  -4   9  -4 8.75545 28.7058   1
  -4   9  -4 17.9012 2.92637   3
  -4   9  -4 23.5191 2.62809   2
   4  -9   4 19.8063 1.97788   2
   4  -9   4 11.5144 26.4247   1
  -5   9  -4 1.68994 2.00241   3
   5  -9   4 3.11478 1.18107   2
  11   8  -4 -26.599 23.0721   1
  11   8  -4 1.70616 1.53973   2
  10   8  -4 49.3314 19.1864   1
  10   8  -4 41.5420 4.49180   2
   9   8  -4 -0.0577 1.09035   2
   9   8  -4 2.91511 13.2321   1
   9   8  -4 -4.5280 13.9723   1
   8   8  -4 -1.2684 0.94573   2
   8   8  -4 -3.2461 9.94917   1
   8   8  -4 1.97655 11.1327   1
   7   8  -4 3.98069 8.68262   1
   6   8  -4 2.44782 0.78137   2
   6   8  -4 -4.4458 7.42933   1
   5   8  -4 314.624 8.84799   2
   5   8  -4 322.325 8.86102   2
   5   8  -4 317.821 19.8517   1
   4   8  -4 30.1328 1.33909   2
   4   8  -4 36.3587 8.41918   1
   4   8  -4 31.2423 1.39023   2
   3   8  -4 8.68030 7.35674   1
  -3  -8   4 8.05286 4.96440   1
   2   8  -4 21.8774 8.85363   1
  -2  -8   4 24.8504 6.85269   1
   1   8  -4 48.3953 11.2841   1
   0   8  -4 5.37025 9.98137   1
   0  -8   4 2.64042 8.82840   1
  -1   8  -4 105.827 17.0466   1
  -1   8  -4 144.971 4.25290   2
   1  -8   4 115.582 16.7664   1
   1  -8   4 147.448 4.25519   2
  -2   8  -4 34.3348 16.5292   1
  -2   8  -4 35.8447 1.93329   2
   2  -8   4 37.7688 1.90179   2
  -3   8  -4 39.5741 18.2489   1
  -3   8  -4 20.7785 1.78607   2
   3  -8   4 23.9685 1.74039   2
   3  -8   4 27.0347 15.2709   1
  -4   8  -4 44.5336 2.59201   2
  -4   8  -4 32.5456 22.8045   1
  -4   8  -4 42.4861 3.45340   3
   4  -8   4 46.1848 2.54871   2
   4  -8   4 42.3532 19.4731   1
  -5   8  -4 0.76777 1.53542   3
  -5   8  -4 16.6651 32.3487   1
   5  -8   4 1.76594 1.07255   2
   5  -8   4 -51.675 24.3673   1
  -6   8  -4 4.53245 2.12583   3
  -6   8  -4 -28.766 39.7388   1
   6  -8   4 1.11952 1.18088   2
  11   7  -4 2.74110 1.54111   2
  11   7  -4 0.90502 24.3862   1
 -11  -7   4 1.44693 1.93433   3
  10   7  -4 33.4558 18.2409   1
   9   7  -4 20.2511 2.04060   2
   9   7  -4 28.2460 18.9433   1
   9   7  -4 10.8288 12.9360   1
  -9  -7   4 14.4651 2.25285   3
   8   7  -4 9.65419 10.9555   1
   8   7  -4 18.8262 11.1805   1
   8   7  -4 20.5179 1.90379   2
  -8  -7   4 18.3988 2.55412   3
   7   7  -4 54.9927 11.4236   1
   7   7  -4 32.5186 10.3662   1
   7   7  -4 48.4681 2.61220   2
   6   7  -4 54.8167 10.0118   1
   6   7  -4 45.4110 2.29945   2
   5   7  -4 643.953 17.3685   2
   5   7  -4 660.939 28.0659   1
   4   7  -4 87.5035 2.84876   2
   4   7  -4 85.7895 10.6619   1
   4   7  -4 90.2117 2.87581   2
   3   7  -4 263.916 17.0529   1
  -3  -7   4 246.787 13.6238   1
   2   7  -4 187.829 15.5381   1
  -2  -7   4 224.529 20.3502   1
   1   7  -4 1163.39 44.8462   1
  -1  -7   4 1185.13 43.1597   1
   0   7  -4 195.447 17.6476   1
   0  -7   4 189.744 16.7982   1
  -1   7  -4 3.14978 0.64155   2
  -1   7  -4 0.18646 9.34274   1
   1  -7   4 3.65699 7.24734   1
   1  -7   4 5.24543 0.71254   2
  -2   7  -4 -0.1308 10.4799   1
  -2   7  -4 8.22443 0.97675   2
   2  -7   4 9.04390 10.7149   1
   2  -7   4 10.0096 1.03624   2
  -3   7  -4 22.5064 1.69775   2
  -3   7  -4 25.4478 14.5131   1
   3  -7   4 14.7902 12.1581   1
  -4   7  -4 16.2741 2.39629   3
  -4   7  -4 19.2118 1.68256   2
  -4   7  -4 19.2627 16.9901   1
   4  -7   4 20.0533 1.83533   2
   4  -7   4 -8.0406 25.1470   1
  -5   7  -4 42.1817 22.5244   1
   5  -7   4 24.9551 22.1550   1
  -6   7  -4 -12.315 30.8391   1
  -6   7  -4 -0.1151 1.40941   3
   6  -7   4 -3.1148 0.95636   2
   6  -7   4 29.7825 30.7120   1
  -7   7  -4 17.5571 2.63143   3
  -7   7  -4 -6.8387 41.2888   1
   7  -7   4 10.7528 1.83096   2
  11   6  -4 2.09148 1.47146   2
 -11  -6   4 4.42675 1.95933   3
  10   6  -4 -4.8010 29.9410   1
  10   6  -4 5.56536 1.50962   2
 -10  -6   4 4.63137 2.00406   3
   9   6  -4 -9.5179 14.8951   1
   9   6  -4 6.61791 1.46894   2
   9   6  -4 10.1485 15.6321   1
  -9  -6   4 8.80573 1.99174   3
   8   6  -4 82.7329 21.4297   1
   8   6  -4 105.319 4.28724   2
   8   6  -4 97.7941 16.3327   1
  -8  -6   4 97.5813 4.78690   3
   7   6  -4 9.43502 1.30996   2
   7   6  -4 10.4490 14.5063   1
   7   6  -4 12.3868 9.22748   1
  -7  -6   4 5.09024 1.54485   3
   6   6  -4 4.65335 9.09905   1
   6   6  -4 1.32056 1.58138   2
  -6  -6   4 2.17523 1.18184   3
   5   6  -4 132.513 4.27629   2
   5   6  -4 136.833 13.0210   1
   4   6  -4 51.6579 1.98974   2
   4   6  -4 48.8414 8.16759   1
   3   6  -4 705.844 18.4390   2
   3   6  -4 694.456 18.4305   2
   3   6  -4 715.205 28.3718   1
  -3  -6   4 734.951 31.8584   1
   2   6  -4 -2.3159 4.63667   1
   1   6  -4 41.6149 7.95505   1
  -1  -6   4 42.0090 7.45786   1
   0   6  -4 20.3134 8.12731   1
   0  -6   4 5.17029 6.01768   1
  -1   6  -4 481.898 12.9339   2
  -1   6  -4 503.164 28.4596   1
   1  -6   4 489.490 12.9353   2
  -2   6  -4 274.689 22.5576   1
  -2   6  -4 287.912 8.05215   2
   2  -6   4 261.150 20.6827   1
   2  -6   4 295.361 8.06041   2
  -3   6  -4 7.75584 1.07829   2
  -3   6  -4 15.5835 12.7162   1
   3  -6   4 4.63361 9.41586   1
  -4   6  -4 6.37910 12.9628   1
   4  -6   4 8.74198 13.3348   1
  -5   6  -4 16.0421 2.40564   3
  -5   6  -4 26.1158 19.2083   1
   5  -6   4 0.50400 17.6721   1
   5  -6   4 20.1956 1.82890   2
  -6   6  -4 14.8071 2.19123   3
   6  -6   4 19.2150 1.97610   2
   6  -6   4 17.2936 22.0255   1
  -7   6  -4 4.23261 1.85069   3
  -7   6  -4 -19.304 33.2857   1
   7  -6   4 -6.9837 34.1873   1
   7  -6   4 4.44486 1.43155   2
  -8   6  -4 -75.468 44.0195   1
  -8   6  -4 0.75204 1.75603   3
   8  -6   4 3.64264 1.41126   2
  11   5  -4 10.2860 26.4306   1
  11   5  -4 13.9541 2.25143   2
 -11  -5   4 20.0087 3.24090   3
  10   5  -4 -14.782 17.5176   1
  10   5  -4 -4.9640 22.1423   1
  10   5  -4 0.48425 1.28876   2
 -10  -5   4 -0.5970 1.38526   3
   9   5  -4 20.6254 15.7199   1
   9   5  -4 8.61900 13.2818   1
   9   5  -4 2.52966 1.24345   2
  -9  -5   4 5.15729 1.93830   3
   8   5  -4 11.0852 12.0263   1
   8   5  -4 18.9141 10.9015   1
   8   5  -4 16.1847 1.74748   2
  -8  -5   4 16.8627 1.84837   2
  -8  -5   4 13.1363 2.08241   3
   7   5  -4 3.51170 9.01641   1
   7   5  -4 4.35088 1.19687   2
   7   5  -4 11.9413 8.63583   1
  -7  -5   4 4.22643 1.00772   2
  -7  -5   4 4.09224 1.34350   3
   6   5  -4 92.1055 12.3755   1
   6   5  -4 91.9743 12.8760   1
   6   5  -4 78.9661 3.31419   2
  -6  -5   4 84.4184 3.83573   3
  -6  -5   4 84.7462 3.31830   2
   5   5  -4 28.6192 1.77323   2
   5   5  -4 22.8744 6.92722   1
  -5  -5   4 31.9716 2.18444   3
  -5  -5   4 31.5901 1.76143   2
   4   5  -4 169.124 4.93357   2
   4   5  -4 179.162 12.8714   1
  -4  -5   4 159.062 5.59800   3
   3   5  -4 7.46979 4.44485   1
  -3  -5   4 9.40448 4.57035   1
   2   5  -4 148.867 11.3278   1
  -2  -5   4 143.049 10.0567   1
   1   5  -4 117.016 11.0783   1
  -1  -5   4 131.339 10.8696   1
   0   5  -4 7.19242 5.29310   1
   0  -5   4 4.11643 4.32777   1
  -1   5  -4 398.618 23.2483   1
  -1   5  -4 387.681 10.3642   2
   1  -5   4 395.053 21.5354   1
   1  -5   4 387.807 10.3626   2
  -2   5  -4 222.767 18.7077   1
  -2   5  -4 213.019 6.12141   2
   2  -5   4 199.197 17.2030   1
   2  -5   4 216.523 6.11769   2
  -3   5  -4 23.2861 9.91149   1
  -3   5  -4 23.7151 1.92947   2
   3  -5   4 26.6920 1.69579   2
   3  -5   4 27.7302 10.8494   1
  -4   5  -4 13.5995 10.9747   1
  -4   5  -4 13.3128 1.73692   3
  -4   5  -4 12.8659 1.41614   2
   4  -5   4 11.7540 1.32923   2
   4  -5   4 8.94824 10.6954   1
  -5   5  -4 169.205 24.6067   1
  -5   5  -4 199.435 6.61133   2
  -5   5  -4 204.564 7.26287   3
   5  -5   4 200.475 25.5162   1
   5  -5   4 209.527 6.65616   2
  -6   5  -4 12.7386 18.0094   1
  -6   5  -4 4.15840 1.69251   3
   6  -5   4 10.6571 18.5833   1
   6  -5   4 2.66201 1.19964   2
  -7   5  -4 20.9841 22.6504   1
   7  -5   4 34.9540 28.7926   1
  -8   5  -4 38.6370 43.4756   1
  -8   5  -4 32.8922 3.35282   3
   8  -5   4 14.0533 34.0599   1
   8  -5   4 35.5255 2.96228   2
  11   4  -4 -2.6588 1.64757   2
  11   4  -4 6.02631 27.1462   1
 -11  -4   4 2.60807 2.25014   3
  10   4  -4 49.1658 3.47222   2
  10   4  -4 58.0684 23.8366   1
  10   4  -4 26.0647 18.1173   1
 -10  -4   4 45.5896 3.75562   3
   9   4  -4 5.78061 1.60800   2
   9   4  -4 3.25419 13.6380   1
   9   4  -4 25.0978 17.0733   1
  -9  -4   4 5.96221 1.69486   3
   8   4  -4 134.085 5.05013   2
   8   4  -4 119.347 17.4926   1
   8   4  -4 121.763 18.0660   1
  -8  -4   4 125.414 5.51197   3
  -8  -4   4 114.849 5.31092   2
   7   4  -4 373.892 10.7796   2
   7   4  -4 340.934 22.8607   1
   7   4  -4 361.303 25.1695   1
  -7  -4   4 351.471 10.6708   2
  -7  -4   4 370.201 11.3367   3
   6   4  -4 131.193 15.2920   1
   6   4  -4 119.621 13.1736   1
   6   4  -4 118.054 4.38754   2
  -6  -4   4 121.436 4.32270   2
  -6  -4   4 126.722 4.85133   3
   5   4  -4 31.8857 7.60262   1
   5   4  -4 24.4152 1.76191   2
  -5  -4   4 27.0384 1.68434   2
  -5  -4   4 27.4270 1.98357   3
   4   4  -4 89.7007 9.35950   1
   4   4  -4 75.4606 2.66537   2
  -4  -4   4 70.6223 3.06566   3
  -4  -4   4 72.8949 2.61149   2
   3   4  -4 64.6612 2.19858   2
   3   4  -4 49.4491 7.19583   1
  -3  -4   4 73.7157 7.55943   1
  -3  -4   4 66.7869 2.19284   2
  -3  -4   4 63.1311 2.74324   3
   2   4  -4 31.7392 5.83905   1
   2   4  -4 29.3428 1.06833   2
  -2  -4   4 21.6297 4.75527   1
   1   4  -4 76.4123 8.57782   1
  -1  -4   4 76.0447 7.91672   1
   0   4  -4 1040.87 37.0852   1
  -1   4  -4 44.8130 1.57582   2
  -1   4  -4 45.2787 8.23989   1
   1  -4   4 45.3195 7.91194   1
   1  -4   4 46.7250 1.57207   2
  -2   4  -4 1.73389 0.57638   2
  -2   4  -4 4.57777 6.10584   1
   2  -4   4 3.80171 0.63377   2
   2  -4   4 6.20628 5.95960   1
  -3   4  -4 40.8761 1.94242   2
  -3   4  -4 48.8598 10.6945   1
   3  -4   4 45.0641 10.1358   1
   3  -4   4 40.6876 1.93993   2
  -4   4  -4 49.1933 2.62115   3
  -4   4  -4 63.0784 14.2666   1
  -4   4  -4 52.2601 2.39595   2
   4  -4   4 40.8958 2.31517   2
   4  -4   4 43.9045 12.0267   1
  -5   4  -4 43.1038 2.43302   2
  -5   4  -4 37.6448 13.3906   1
  -5   4  -4 38.7656 2.60239   3
   5  -4   4 43.5143 2.49429   2
   5  -4   4 34.4210 12.7261   1
  -6   4  -4 24.0680 2.35487   3
  -6   4  -4 25.0340 2.20360   2
  -6   4  -4 21.8180 15.1983   1
   6  -4   4 29.2733 15.4138   1
   6  -4   4 26.0839 2.32062   2
  -7   4  -4 187.746 29.5108   1
  -7   4  -4 212.571 7.64474   3
   7  -4   4 210.777 7.25599   2
   7  -4   4 198.026 30.5177   1
  -8   4  -4 1.77439 1.34302   3
  -8   4  -4 -2.0944 28.5263   1
   8  -4   4 -30.525 29.8297   1
   8  -4   4 2.84332 1.32758   2
  -9   4  -4 49.2069 3.95029   3
   9  -4   4 51.0913 3.65121   2
   9  -4   4 7.01170 42.0079   1
  11   3  -4 117.221 40.8189   1
  11   3  -4 69.5008 4.56049   2
 -11  -3   4 62.4988 4.66417   3
  10   3  -4 23.6788 2.82285   2
  10   3  -4 17.5841 24.0308   1
  10   3  -4 40.3613 20.0947   1
 -10  -3   4 24.3402 3.02142   3
   9   3  -4 29.1288 2.74087   2
   9   3  -4 43.4042 15.3847   1
   9   3  -4 41.3235 19.1170   1
  -9  -3   4 20.2879 2.65842   3
   8   3  -4 64.2902 15.9635   1
   8   3  -4 83.8076 16.7295   1
   8   3  -4 97.9030 4.42268   2
  -8  -3   4 104.062 4.81215   3
   7   3  -4 16.3092 9.48128   1
   7   3  -4 1.49868 1.13095   2
   7   3  -4 -1.4437 8.52877   1
  -7  -3   4 2.72185 1.11306   2
  -7  -3   4 0.62699 1.19083   3
   6   3  -4 146.258 15.5646   1
   6   3  -4 155.014 16.2992   1
   6   3  -4 157.471 5.28607   2
  -6  -3   4 153.617 5.20647   2
  -6  -3   4 151.985 5.58696   3
   5   3  -4 47.6800 2.40300   2
   5   3  -4 45.8122 8.16392   1
   5   3  -4 46.8082 9.48524   1
  -5  -3   4 54.0598 2.35273   2
  -5  -3   4 47.7883 2.58387   3
   4   3  -4 3.43498 0.78328   2
   4   3  -4 6.98062 4.83447   1
  -4  -3   4 4.30338 1.05254   3
  -4  -3   4 2.82005 0.71007   2
   3   3  -4 24.1863 5.52844   1
   3   3  -4 28.3218 1.44883   2
  -3  -3   4 27.6836 1.74284   3
  -3  -3   4 30.3399 1.41584   2
  -3  -3   4 31.2991 5.53386   1
   2   3  -4 60.1832 7.46852   1
   2   3  -4 59.4489 1.87513   2
  -2  -3   4 58.0348 6.33565   1
  -2  -3   4 53.9129 1.84950   2
   1   3  -4 1434.61 44.9509   1
   0   3  -4 121.509 10.3526   1
   0  -3   4 127.791 10.1747   1
  -1   3  -4 494.140 22.3310   1
   1  -3   4 495.468 12.8067   2
   1  -3   4 476.975 21.6781   1
  -2   3  -4 370.704 20.6090   1
  -2   3  -4 387.061 10.3478   2
   2  -3   4 418.628 20.9221   1
   2  -3   4 373.284 10.3189   2
  -3   3  -4 -0.9611 0.48367   2
  -3   3  -4 -8.0584 5.47172   1
   3  -3   4 -0.3066 0.56769   2
   3  -3   4 -2.6527 9.46962   1
  -4   3  -4 32.2376 10.4701   1
  -4   3  -4 29.6174 1.91525   3
  -4   3  -4 30.7880 1.79900   2
   4  -3   4 34.9746 9.80939   1
  -5   3  -4 -0.1498 8.47563   1
  -5   3  -4 2.48858 1.01937   3
  -5   3  -4 0.56511 0.87957   2
   5  -3   4 0.62377 0.93564   2
   5  -3   4 5.25423 8.98790   1
  -6   3  -4 33.9204 2.32193   2
  -6   3  -4 36.6400 14.3376   1
  -6   3  -4 35.7004 2.49577   3
   6  -3   4 32.3881 2.47700   2
   6  -3   4 18.7594 13.3096   1
  -7   3  -4 17.4181 16.4135   1
   7  -3   4 9.84672 15.8606   1
  -8   3  -4 25.2277 20.7781   1
  -8   3  -4 -0.5823 1.23876   3
   8  -3   4 3.44064 22.2820   1
   8  -3   4 0.79596 1.28574   2
  -9   3  -4 36.0718 32.9000   1
   9  -3   4 57.9459 35.6363   1
 -10   3  -4 12.2812 2.30855   3
  10  -3   4 7.55532 1.97207   2
  11   2  -4 24.8924 2.87548   2
 -11  -2   4 28.8541 3.88289   3
  10   2  -4 17.4211 25.3249   1
  10   2  -4 6.69022 1.77550   2
  10   2  -4 -6.2294 20.6515   1
 -10  -2   4 8.92974 2.47782   3
   9   2  -4 44.8416 22.0096   1
   9   2  -4 19.4631 18.2525   1
   9   2  -4 14.2567 2.14599   2
  -9  -2   4 21.7835 2.83393   3
   8   2  -4 27.1409 2.62506   2
   8   2  -4 19.0689 13.5190   1
   8   2  -4 34.6295 16.0521   1
  -8  -2   4 27.8580 2.83193   3
   7   2  -4 54.8331 24.0294   1
   7   2  -4 14.6605 1.66351   2
   7   2  -4 22.8110 10.3694   1
  -7  -2   4 14.0300 1.68090   2
  -7  -2   4 15.3238 2.00988   3
   6   2  -4 1.22069 7.56900   1
   6   2  -4 -1.0918 7.73736   1
   6   2  -4 0.74740 0.95805   2
  -6  -2   4 -1.0378 0.70842   2
  -6  -2   4 -0.3386 0.95272   3
   5   2  -4 369.642 21.7634   1
   5   2  -4 372.263 21.4169   1
  -5  -2   4 394.337 10.9927   2
  -5  -2   4 392.541 11.3729   3
   4   2  -4 204.785 14.1586   1
   4   2  -4 219.712 6.40652   2
   4   2  -4 211.360 15.2048   1
  -4  -2   4 227.069 6.40853   2
  -4  -2   4 204.072 6.64122   3
   3   2  -4 0.55768 0.56902   2
   3   2  -4 4.66707 3.94538   1
  -3  -2   4 1.35460 0.70975   3
  -3  -2   4 1.37901 0.63079   2
   2   2  -4 590.314 22.8657   1
   2   2  -4 612.436 15.8844   2
  -2  -2   4 594.863 16.2435   3
  -2  -2   4 619.265 15.8827   2
   1   2  -4 7.72593 0.58383   2
   1   2  -4 5.83879 3.56512   1
  -1  -2   4 10.4258 0.99229   3
  -1  -2   4 11.6700 5.69892   1
  -1  -2   4 6.67170 0.57955   2
   0   2  -4 619.546 23.3748   1
   0  -2   4 649.548 16.4541   2
   0  -2   4 644.758 23.4358   1
  -1   2  -4 2222.95 65.9920   1
   1  -2   4 2214.64 56.8576   2
   1  -2   4 2214.32 65.6964   1
  -2   2  -4 587.308 26.7726   1
   2  -2   4 634.781 26.0849   1
   2  -2   4 638.693 16.4120   2
  -3   2  -4 77.1999 2.71308   2
  -3   2  -4 92.3642 11.3630   1
   3  -2   4 61.7308 9.35311   1
   3  -2   4 75.5618 2.69850   2
  -4   2  -4 66.6136 2.70200   3
  -4   2  -4 79.6175 11.7590   1
   4  -2   4 67.2643 2.72596   2
   4  -2   4 78.1868 11.4229   1
  -5   2  -4 13.5581 8.12274   1
   5  -2   4 13.8465 8.73359   1
  -6   2  -4 34.6774 2.37659   2
  -6   2  -4 36.9929 12.8049   1
  -6   2  -4 37.1991 2.33771   3
   6  -2   4 41.9162 12.8517   1
   6  -2   4 44.8138 2.58724   2
  -7   2  -4 22.1201 2.13666   2
  -7   2  -4 26.7858 2.19475   3
  -7   2  -4 32.3286 15.2830   1
   7  -2   4 41.9989 14.7450   1
   7  -2   4 21.1391 2.06632   2
  -8   2  -4 2.23073 18.6154   1
   8  -2   4 -1.3921 19.6588   1
  -9   2  -4 5.00503 41.1992   1
  -9   2  -4 1.53355 1.34112   3
   9  -2   4 5.68363 25.5759   1
   9  -2   4 -1.2990 1.17816   2
  10  -2   4 39.8639 38.1126   1
  11   1  -4 5.28833 1.81947   2
 -11  -1   4 0.20281 1.79566   3
  10   1  -4 28.1629 28.5908   1
  10   1  -4 33.8246 27.1045   1
   9   1  -4 18.5317 18.3458   1
   9   1  -4 11.2315 2.13927   2
   9   1  -4 25.8650 21.0454   1
  -9  -1   4 11.0966 2.37787   3
   8   1  -4 22.0996 13.3103   1
   8   1  -4 7.12261 1.57696   2
   8   1  -4 15.5288 16.0364   1
  -8  -1   4 5.79738 1.80120   3
   7   1  -4 11.1392 11.4563   1
   7   1  -4 -3.1372 13.0010   1
   7   1  -4 1.92875 1.06718   2
  -7  -1   4 -0.7182 1.19655   3
  -7  -1   4 2.86192 0.99198   2
   6   1  -4 13.4645 9.68398   1
   6   1  -4 24.3627 2.15445   2
   6   1  -4 29.3046 10.0816   1
  -6  -1   4 24.3055 2.00336   2
  -6  -1   4 26.0398 2.24765   3
   5   1  -4 225.057 18.6228   1
   5   1  -4 232.553 6.95363   2
   5   1  -4 213.762 17.2250   1
  -5  -1   4 213.075 6.83995   2
  -5  -1   4 227.616 7.22647   3
   4   1  -4 1641.14 43.3857   2
   4   1  -4 1664.41 55.5091   1
   4   1  -4 1684.57 55.8348   1
  -4  -1   4 1661.97 43.3648   2
  -4  -1   4 1654.22 43.6103   3
   3   1  -4 93.4402 10.0953   1
   3   1  -4 108.577 3.50017   2
   3   1  -4 100.130 10.6950   1
  -3  -1   4 101.558 3.61305   3
  -3  -1   4 107.240 3.47496   2
   2   1  -4 16.1853 4.53885   1
   2   1  -4 18.4944 1.16083   2
  -2  -1   4 16.9908 4.72208   1
  -2  -1   4 18.5514 1.23227   3
  -2  -1   4 18.0145 1.13543   2
   1   1  -4 4.20376 0.50922   2
   1   1  -4 4.21136 3.04533   1
  -1  -1   4 1.56490 2.78316   1
  -1  -1   4 4.80332 0.50786   2
  -1  -1   4 3.41652 0.55218   3
   0   1  -4 17.8970 4.04203   1
   0   1  -4 18.2010 0.82956   2
   0  -1   4 19.8508 0.83720   2
   0  -1   4 14.8049 3.64071   1
   0  -1   4 18.7477 0.94752   3
  -1   1  -4 1.83664 3.06535   1
   1  -1   4 4.42250 3.25655   1
   1  -1   4 3.66404 0.46132   2
   2  -1   4 16.3605 1.04176   2
   2  -1   4 9.40260 4.46260   1
  -3   1  -4 180.804 5.36197   3
  -3   1  -4 182.345 13.5781   1
   3  -1   4 187.869 5.51186   2
   3  -1   4 219.904 14.6092   1
  -4   1  -4 574.291 26.1258   1
  -4   1  -4 526.535 14.3400   3
  -4   1  -4 537.857 14.5027   2
   4  -1   4 511.088 14.4212   2
   4  -1   4 528.855 25.7434   1
  -5   1  -4 224.957 6.83478   2
  -5   1  -4 218.422 17.8787   1
  -5   1  -4 220.948 6.67493   3
   5  -1   4 204.476 17.6224   1
   5  -1   4 227.040 8.16743   2
  -6   1  -4 23.5733 10.6532   1
  -6   1  -4 18.8413 1.67577   3
  -6   1  -4 19.4805 1.78989   2
   6  -1   4 3.59013 9.05624   1
   6  -1   4 15.9128 1.60397   2
  -7   1  -4 26.2629 2.07074   3
  -7   1  -4 25.0735 2.23083   2
   7  -1   4 3.49498 12.7660   1
   7  -1   4 23.8911 2.36721   2
  -8   1  -4 13.1741 13.9472   1
   8  -1   4 2.73487 16.9429   1
  -9   1  -4 -6.1807 18.7477   1
  -9   1  -4 1.30514 1.41729   3
   9  -1   4 1.53126 20.0922   1
   9  -1   4 0.80371 1.28081   2
 -10   1  -4 -0.1227 1.27701   3
  10  -1   4 -36.142 30.7065   1
  10  -1   4 -2.1696 1.39505   2
 -11   1  -4 4.93872 1.96332   3
  11  -1   4 6.13101 3.29743   2
  10   0  -4 52.5576 28.6854   1
  10   0  -4 15.3291 2.49783   2
  10   0  -4 31.7266 34.4868   1
 -10   0   4 10.7704 2.42615   3
   9   0  -4 -0.4588 1.16401   2
   9   0  -4 12.7922 21.9840   1
  -9   0   4 2.12797 1.67952   3
   8   0  -4 19.3272 2.28879   2
   8   0  -4 22.1635 15.5956   1
   8   0  -4 18.9309 17.8453   1
  -8   0   4 25.1043 2.73255   3
   7   0  -4 16.6533 14.9490   1
   7   0  -4 6.32508 1.48943   2
   6   0  -4 12.1701 1.62281   2
   6   0  -4 15.6497 10.8099   1
  -6   0   4 10.9464 1.53768   2
  -6   0   4 9.55787 1.58902   3
   5   0  -4 134.081 15.1234   1
   5   0  -4 122.852 4.46727   2
  -5   0   4 121.255 4.39132   2
  -5   0   4 124.173 4.67815   3
   4   0  -4 80.9719 11.3147   1
   4   0  -4 100.841 3.65330   2
  -4   0   4 102.271 3.61168   2
  -4   0   4 101.370 3.82143   3
   3   0  -4 3.11700 4.80455   1
   3   0  -4 2.41239 5.41487   1
   3   0  -4 4.68964 0.94286   2
  -3   0   4 6.64045 0.93309   2
  -3   0   4 9.49114 1.36783   3
   2   0  -4 668.946 25.2355   1
   2   0  -4 638.248 25.0983   1
   2   0  -4 605.682 16.6811   2
  -2   0   4 622.555 16.8809   3
  -2   0   4 631.942 16.7054   2
   1   0  -4 1355.52 33.8755   2
   1   0  -4 1295.09 40.7775   1
  -1   0   4 1282.37 33.9632   3
  -1   0   4 1288.42 33.8415   2
  -1   0   4 1324.37 40.7816   1
   0   0  -4 199.552 10.1336   1
   0   0  -4 188.319 5.17448   2
   0   0   4 183.664 5.15602   3
   0   0   4 185.486 9.92967   1
   0   0   4 188.749 5.16395   2
  -1   0  -4 412.654 10.9429   2
  -1   0  -4 410.730 16.2097   1
   1   0   4 423.888 16.3157   1
   1   0   4 411.833 10.9291   2
  -2   0  -4 1861.33 60.7726   1
   2   0   4 2051.57 58.0374   1
  -3   0  -4 7.18189 4.43187   1
  -3   0  -4 0.85183 0.42575   3
   3   0   4 0.47206 0.55430   2
   3   0   4 -1.6792 3.72205   1
  -4   0  -4 12.0338 5.36656   1
  -4   0  -4 23.2707 1.22899   3
   4   0   4 22.4966 1.59521   2
   4   0   4 30.0665 7.11255   1
  -5   0  -4 114.625 3.74906   3
  -5   0  -4 139.747 14.3066   1
   5   0   4 125.096 12.9788   1
   5   0   4 108.873 4.07413   2
  -6   0  -4 336.845 9.84338   3
  -6   0  -4 376.855 23.7791   1
   6   0   4 343.812 10.1304   2
   6   0   4 336.931 23.1762   1
  -7   0  -4 31.9787 2.06692   3
  -7   0  -4 34.5979 12.2743   1
   7   0   4 14.6773 10.4978   1
   7   0   4 32.9054 2.52743   2
  -8   0  -4 8.00970 11.3782   1
  -8   0  -4 12.1427 1.70938   3
   8   0   4 15.7702 2.08079   2
   8   0   4 -20.020 13.4946   1
  -9   0  -4 0.36981 1.14365   3
  -9   0  -4 0.64302 15.4559   1
   9   0   4 -18.680 17.0174   1
   9   0   4 0.67062 1.40595   2
 -10   0  -4 35.8544 24.6132   1
  10   0   4 15.5604 30.6485   1
 -11   0  -4 -0.1639 1.47054   3
  11   0   4 0.62956 1.56867   2
  10  -1  -4 44.2966 38.6685   1
  10  -1  -4 32.7252 3.35984   2
 -10   1   4 36.1809 3.92035   3
   9  -1  -4 -24.963 26.3486   1
   9  -1  -4 6.96248 1.69242   2
   9  -1  -4 12.6717 24.5533   1
  -9   1   4 9.06071 2.45539   3
   8  -1  -4 26.2167 20.0898   1
   8  -1  -4 27.8674 2.80885   2
  -8   1   4 27.5715 2.86715   3
   7  -1  -4 136.374 5.51736   2
   7  -1  -4 143.182 22.6935   1
  -7   1   4 138.927 5.82041   3
   6  -1  -4 270.167 8.53635   2
   6  -1  -4 239.366 23.8172   1
  -6   1   4 271.268 8.88651   3
  -6   1   4 266.684 8.47819   2
   5  -1  -4 88.9555 14.3842   1
   5  -1  -4 101.137 4.02205   2
  -5   1   4 101.972 3.98457   2
  -5   1   4 105.003 4.30267   3
   4  -1  -4 78.6160 3.11622   2
   4  -1  -4 71.0174 11.8542   1
  -4   1   4 70.2796 3.00805   2
  -4   1   4 72.4063 3.19493   3
   3  -1  -4 8.57610 5.78765   1
   3  -1  -4 2.35610 0.75483   2
  -3   1   4 4.60974 1.02801   3
  -3   1   4 6.21751 1.18348   2
   2  -1  -4 132.047 11.3501   1
   2  -1  -4 131.658 4.16419   2
   2  -1  -4 121.570 11.0173   1
  -2   1   4 133.362 4.13410   2
   1  -1  -4 9.77694 0.97860   2
   1  -1  -4 8.34230 3.91785   1
   1  -1  -4 11.8641 4.73351   1
  -1   1   4 10.6172 0.95572   2
  -1   1   4 11.3787 0.95883   3
   0  -1  -4 97.2555 7.35624   1
   0  -1  -4 110.736 3.30371   2
   0   1   4 106.550 3.27129   2
   0   1   4 114.743 3.27428   3
   0   1   4 117.149 8.09129   1
  -1  -1  -4 27.6142 4.27397   1
   1   1   4 33.1909 4.42339   1
   1   1   4 38.4526 1.46827   2
   1   1   4 39.2459 1.29604   3
  -2  -1  -4 1216.51 36.4686   1
   2   1   4 1179.98 31.0514   2
  -3  -1  -4 96.0501 8.43903   1
   3   1   4 96.2866 8.14851   1
  -4  -1  -4 552.185 14.4119   3
  -4  -1  -4 549.734 22.5869   1
   4   1   4 566.696 23.5361   1
   4   1   4 528.724 14.7997   2
  -5  -1  -4 5.38899 5.51167   1
  -5  -1  -4 3.77180 0.70218   3
   5   1   4 3.04720 5.22713   1
   5   1   4 1.12857 0.76422   2
  -6  -1  -4 17.3439 1.40239   3
  -6  -1  -4 21.5498 7.78947   1
   6   1   4 34.6263 9.85769   1
   6   1   4 13.8405 1.51428   2
  -7  -1  -4 2.76764 8.74646   1
  -7  -1  -4 7.69338 1.19842   3
   7   1   4 6.30280 1.29628   2
   7   1   4 10.8352 10.1174   1
  -8  -1  -4 50.1304 2.68488   3
  -8  -1  -4 29.5037 11.3889   1
   8   1   4 53.2379 3.18114   2
   8   1   4 45.2553 14.3670   1
  -9  -1  -4 -0.7220 13.2069   1
   9   1   4 9.50905 17.2996   1
 -10  -1  -4 -21.574 19.0355   1
  10   1   4 8.36526 1.90308   2
 -11  -1  -4 2.81278 1.52986   3
  11   1   4 3.30836 1.79164   2
  10  -2  -4 12.1542 2.59394   2
 -10   2   4 10.2212 2.96065   3
   9  -2  -4 31.2570 32.0349   1
   9  -2  -4 -2.0755 1.32602   2
   9  -2  -4 -14.617 30.7378   1
  -9   2   4 -0.9373 1.71347   3
   8  -2  -4 34.4295 3.24415   2
   8  -2  -4 47.6805 24.4577   1
  -8   2   4 37.5334 3.45793   3
   7  -2  -4 18.6027 16.4417   1
   7  -2  -4 10.0620 1.61264   2
  -7   2   4 11.1391 2.24351   3
   6  -2  -4 24.1682 14.0123   1
   6  -2  -4 51.4397 3.12700   2
   5  -2  -4 260.748 8.11740   2
   5  -2  -4 267.545 23.1681   1
  -5   2   4 248.356 8.07647   2
  -5   2   4 261.174 22.6415   1
  -5   2   4 259.167 8.51419   3
   4  -2  -4 683.278 33.2486   1
   4  -2  -4 621.811 17.6920   2
  -4   2   4 651.105 17.7471   2
  -4   2   4 655.167 32.6795   1
  -4   2   4 641.185 18.1079   3
   3  -2  -4 605.658 16.3057   2
  -3   2   4 599.139 16.5705   3
  -3   2   4 599.764 16.2800   2
  -3   2   4 569.033 29.2138   1
   2  -2  -4 557.675 24.8176   1
   2  -2  -4 504.771 14.4654   2
   2  -2  -4 565.102 24.9345   1
  -2   2   4 533.901 24.6736   1
  -2   2   4 519.959 14.4611   2
  -2   2   4 548.636 14.7391   3
   1  -2  -4 34.2188 6.43370   1
   1  -2  -4 36.7505 1.76098   2
   1  -2  -4 49.2654 7.02569   1
  -1   2   4 36.8000 1.76387   3
  -1   2   4 35.0592 1.68957   2
   0  -2  -4 729.579 29.2993   1
   0  -2  -4 770.202 20.2666   2
   0   2   4 803.620 27.6730   1
   0   2   4 778.771 20.2929   3
  -1  -2  -4 41.2530 1.64802   2
  -1  -2  -4 34.4752 4.42422   1
   1   2   4 43.0995 1.65768   2
   1   2   4 34.0681 5.23077   1
  -2  -2  -4 254.133 6.45208   2
   2   2   4 200.839 6.13151   2
   2   2   4 194.992 9.74811   1
  -3  -2  -4 66.5469 6.38356   1
   3   2   4 79.3712 2.72356   2
   3   2   4 70.7676 6.86366   1
  -4  -2  -4 285.727 14.1181   1
  -4  -2  -4 285.352 7.89385   3
   4   2   4 295.012 8.39814   2
   4   2   4 318.630 15.1560   1
  -5  -2  -4 1.75856 0.54964   3
  -5  -2  -4 -4.5984 4.01072   1
   5   2   4 0.76055 0.68971   2
   5   2   4 -1.5891 4.36067   1
  -6  -2  -4 257.851 16.8453   1
  -6  -2  -4 243.366 7.30608   3
   6   2   4 265.504 7.84568   2
   6   2   4 259.139 17.4047   1
  -7  -2  -4 -3.3521 6.66716   1
  -7  -2  -4 0.81880 0.83219   3
   7   2   4 6.19830 8.50924   1
   7   2   4 1.73687 1.04768   2
  -8  -2  -4 66.9190 3.10217   3
  -8  -2  -4 63.5912 12.8303   1
   8   2   4 73.4359 3.65027   2
   8   2   4 66.2366 14.2741   1
  -9  -2  -4 36.5756 2.47482   3
  -9  -2  -4 21.3659 13.8701   1
   9   2   4 34.9974 2.91789   2
   9   2   4 16.1965 15.6550   1
 -10  -2  -4 17.7440 17.2573   1
 -10  -2  -4 15.1226 1.94891   3
  10   2   4 15.2608 28.2492   1
  10   2   4 14.1907 1.93399   2
 -11  -2  -4 2.49942 1.52882   3
  11   2   4 2.37237 1.66620   2
 -12  -2  -4 8.87930 1.95547   3
  12   2   4 14.8657 2.78552   2
   9  -3  -4 0.57156 1.62294   2
   9  -3  -4 7.32904 43.3185   1
   9  -3  -4 -26.645 35.2844   1
  -9   3   4 4.49845 2.39915   3
   8  -3  -4 -4.1984 23.3083   1
   8  -3  -4 9.78558 2.07879   2
   8  -3  -4 19.8207 27.3916   1
  -8   3   4 9.90553 2.07970   3
   7  -3  -4 -12.112 21.1920   1
   7  -3  -4 9.71409 1.97255   2
   6  -3  -4 108.304 20.4531   1
   6  -3  -4 72.5928 3.87423   2
  -6   3   4 78.0789 4.21755   3
  -6   3   4 73.1889 18.1520   1
   5  -3  -4 11.7764 1.54181   2
   5  -3  -4 30.0199 12.7357   1
  -5   3   4 10.9069 1.56034   2
  -5   3   4 14.5484 11.3980   1
  -5   3   4 13.7732 2.01611   3
   4  -3  -4 1141.85 29.9870   2
   4  -3  -4 1077.60 47.2443   1
  -4   3   4 1126.09 29.9495   2
  -4   3   4 1092.92 47.5139   1
  -4   3   4 1127.67 30.4194   3
   3  -3  -4 126.047 4.39822   2
   3  -3  -4 134.383 16.0079   1
  -3   3   4 107.286 18.0226   1
  -3   3   4 121.038 4.58436   3
  -3   3   4 123.811 4.33731   2
   2  -3  -4 45.0795 8.23213   1
  -2   3   4 43.7984 9.18695   1
  -2   3   4 39.9055 2.04107   2
  -2   3   4 42.7459 2.19474   3
   1  -3  -4 28.3893 6.37720   1
   1  -3  -4 16.8727 5.58701   1
  -1   3   4 24.5988 1.52291   2
  -1   3   4 25.7660 1.61471   3
  -1   3   4 13.9197 5.50969   1
   0  -3  -4 70.8522 2.60111   2
   0  -3  -4 73.8980 7.19105   1
   0   3   4 72.4244 2.65914   3
   0   3   4 72.1209 2.62075   2
  -1  -3  -4 11.8599 3.40229   1
  -1  -3  -4 3.61025 2.60453   1
  -1  -3  -4 5.09200 0.75537   2
   1   3   4 5.02171 0.68425   2
   1   3   4 6.55287 3.21033   1
  -2  -3  -4 229.510 6.49384   2
  -2  -3  -4 230.566 9.02986   1
  -2  -3  -4 236.362 9.29217   1
   2   3   4 225.281 6.48289   2
   2   3   4 217.999 9.96249   1
  -3  -3  -4 1.58224 2.02748   1
   3   3   4 3.29682 2.45401   1
   3   3   4 0.32059 0.58129   2
  -4  -3  -4 1.46105 2.70047   1
   4   3   4 -1.3532 2.92720   1
  -5  -3  -4 72.5666 2.46589   3
  -5  -3  -4 69.1007 7.44661   1
   5   3   4 69.0080 8.23627   1
  -6  -3  -4 0.46763 0.63456   3
  -6  -3  -4 -0.1114 4.41882   1
   6   3   4 6.96507 5.65768   1
   6   3   4 0.36872 0.82007   2
  -7  -3  -4 14.7631 1.41611   3
  -7  -3  -4 15.4431 6.61396   1
   7   3   4 14.6158 1.65068   2
   7   3   4 8.30266 7.83356   1
  -8  -3  -4 450.711 25.7851   1
  -8  -3  -4 454.782 12.7286   3
   8   3   4 435.942 28.0779   1
   8   3   4 440.938 13.1588   2
  -9  -3  -4 12.3009 11.2572   1
  -9  -3  -4 16.9670 1.86171   3
   9   3   4 3.99289 12.3938   1
   9   3   4 19.9898 2.13988   2
 -10  -3  -4 1.79504 1.16263   3
  10   3   4 -0.0955 1.38156   2
  10   3   4 -2.4828 19.8016   1
 -11  -3  -4 30.6905 2.73850   3
  11   3   4 32.5613 3.15493   2
 -12  -3  -4 1.41535 1.44781   3
  12   3   4 1.08648 1.94350   2
   8  -4  -4 -22.767 28.2066   1
   8  -4  -4 23.7731 32.8319   1
   8  -4  -4 13.5023 2.32340   2
  -8   4   4 10.9583 2.44967   3
   7  -4  -4 8.76356 23.2838   1
   7  -4  -4 -2.0374 1.09917   2
  -7   4   4 3.19001 1.89670   3
   6  -4  -4 92.6235 20.9072   1
   6  -4  -4 83.1851 4.17705   2
  -6   4   4 67.8610 18.1068   1
  -6   4   4 85.1202 4.59214   3
   5  -4  -4 53.6301 15.3140   1
   5  -4  -4 14.7289 1.59661   2
  -5   4   4 -0.5798 12.6796   1
  -5   4   4 17.4936 2.20412   3
   4  -4  -4 98.3913 4.15642   2
   4  -4  -4 90.9367 15.3079   1
  -4   4   4 82.6463 15.9275   1
  -4   4   4 105.515 4.58507   3
  -4   4   4 103.744 4.19984   2
   3  -4  -4 182.661 17.9115   1
   3  -4  -4 176.908 5.89073   2
  -3   4   4 169.166 5.81767   2
  -3   4   4 183.189 6.27367   3
  -3   4   4 203.473 31.2911   1
   2  -4  -4 173.131 5.89739   2
   2  -4  -4 187.654 15.5354   1
  -2   4   4 159.070 15.6297   1
  -2   4   4 168.791 5.81528   3
  -2   4   4 172.556 5.49189   2
   1  -4  -4 24.6311 1.63229   2
   1  -4  -4 12.6100 6.09356   1
  -1   4   4 27.4871 1.76951   3
  -1   4   4 23.7457 6.58235   1
  -1   4   4 21.9812 1.55527   2
   0  -4  -4 352.920 17.1035   1
   0  -4  -4 349.428 9.73730   2
   0  -4  -4 361.056 17.0528   1
   0   4   4 330.324 17.6437   1
   0   4   4 349.589 9.73929   2
  -1  -4  -4 5.84421 0.90803   2
  -1  -4  -4 3.97862 3.28547   1
  -1  -4  -4 6.01619 3.23773   1
   1   4   4 5.08249 0.82085   2
  -2  -4  -4 257.425 7.68530   2
  -2  -4  -4 275.863 9.86829   1
  -2  -4  -4 282.304 10.2010   1
   2   4   4 280.793 11.7306   1
   2   4   4 270.156 7.69203   2
   3   4   4 24.2373 3.40010   1
   3   4   4 24.6636 1.53637   2
   4   4   4 28.7817 1.82610   2
   4   4   4 28.5661 4.04149   1
   5   4   4 208.085 6.52009   2
   5   4   4 220.284 11.8352   1
   6   4   4 167.438 5.69643   2
   6   4   4 192.803 13.2317   1
  -7  -4  -4 92.3998 3.38000   3
   7   4   4 76.2243 11.6342   1
   7   4   4 91.2964 3.89171   2
  -8  -4  -4 456.376 12.8587   3
   8   4   4 440.676 26.1843   1
   8   4   4 456.633 13.3742   2
  -9  -4  -4 3.69845 1.17584   3
   9   4   4 2.29133 1.37226   2
   9   4   4 -22.122 11.2610   1
 -10  -4  -4 -0.4075 1.15171   3
  10   4   4 3.84804 26.0113   1
  10   4   4 1.02799 1.43450   2
 -11  -4  -4 -1.7347 2.01035   3
  11   4   4 -0.6592 1.45886   2
 -12  -4  -4 27.3908 2.78575   3
  12   4   4 25.2962 3.14468   2
   8  -5  -4 14.1959 43.9147   1
   8  -5  -4 3.59213 1.78081   2
  -8   5   4 7.83848 2.50389   3
   7  -5  -4 -9.8890 28.6483   1
   7  -5  -4 2.23609 1.60855   2
   7  -5  -4 -15.601 27.9286   1
  -7   5   4 1.84487 1.89378   3
   6  -5  -4 16.1208 22.6715   1
   6  -5  -4 3.10236 1.29915   2
  -6   5   4 6.26948 1.99538   3
  -6   5   4 -17.060 19.7974   1
   5  -5  -4 -1.9738 14.1900   1
   5  -5  -4 12.2573 1.68272   2
  -5   5   4 14.7487 2.28459   3
  -5   5   4 25.8609 15.5142   1
   4  -5  -4 63.5098 16.3168   1
   4  -5  -4 86.7320 3.82279   2
  -4   5   4 81.8557 4.19550   3
  -4   5   4 79.1998 3.74721   2
  -4   5   4 96.6335 18.7520   1
   3  -5  -4 175.202 20.2632   1
   3  -5  -4 152.468 5.43246   2
  -3   5   4 158.409 5.49370   2
  -3   5   4 156.318 5.91127   3
   2  -5  -4 49.8057 2.54697   2
   2  -5  -4 36.0510 9.40347   1
  -2   5   4 45.8386 2.39817   2
  -2   5   4 45.3659 2.71691   3
  -2   5   4 41.9435 10.2757   1
   1  -5  -4 17.5813 6.11036   1
   1  -5  -4 0.70020 7.50020   1
  -1   5   4 34.5585 9.02782   1
  -1   5   4 26.7785 1.94872   3
  -1   5   4 29.8645 1.83012   2
   0  -5  -4 96.7268 3.53055   2
   0  -5  -4 101.059 9.75896   1
   0  -5  -4 92.1470 10.1003   1
   0   5   4 99.5572 11.2834   1
   0   5   4 101.555 3.51502   2
  -1  -5  -4 253.859 12.8148   1
  -1  -5  -4 256.555 7.37389   2
  -1  -5  -4 240.265 12.9285   1
   1   5   4 259.411 7.35549   2
   1   5   4 246.271 14.1889   1
  -2  -5  -4 530.505 17.0555   1
  -2  -5  -4 540.150 14.7231   2
  -2  -5  -4 554.001 17.3331   1
   2   5   4 545.968 14.6882   2
  -3  -5  -4 620.185 16.4812   2
   3   5   4 598.611 16.4223   2
   3   5   4 610.598 19.5492   1
   4   5   4 127.892 4.19226   2
   4   5   4 121.390 6.27174   1
   5   5   4 20.4201 4.12764   1
   5   5   4 19.0866 1.61012   2
   6   5   4 4.53562 4.60394   1
   6   5   4 8.99065 1.23983   2
   7   5   4 24.1072 2.19771   2
   8   5   4 98.7240 4.33016   2
   8   5   4 104.925 13.2828   1
  -9  -5  -4 18.8513 2.01040   3
   9   5   4 17.6706 2.09569   2
   9   5   4 13.3578 11.5249   1
 -10  -5  -4 150.565 5.64735   3
  10   5   4 157.527 6.95385   2
  11   5   4 5.45882 1.84018   2
 -12  -5  -4 18.7716 2.35635   3
  12   5   4 21.5424 2.79421   2
   7  -6  -4 -21.877 41.3636   1
   6  -6  -4 -2.5402 39.8231   1
   6  -6  -4 23.4360 26.0833   1
  -6   6   4 -16.170 32.6048   1
   5  -6  -4 0.66874 17.6209   1
   5  -6  -4 2.38987 1.33290   2
  -5   6   4 1.48356 1.51727   3
  -5   6   4 2.69817 18.9330   1
   4  -6  -4 16.3558 15.4985   1
   4  -6  -4 18.0305 2.01383   2
  -4   6   4 18.8376 2.63237   3
  -4   6   4 -8.2298 15.8507   1
   3  -6  -4 18.2628 1.89896   2
   3  -6  -4 -3.1714 11.6728   1
  -3   6   4 27.5780 24.9116   1
  -3   6   4 18.9806 2.52458   3
  -3   6   4 19.8358 1.86949   2
   2  -6  -4 415.280 11.9737   2
   2  -6  -4 374.645 32.6968   1
  -2   6   4 420.291 11.9932   2
  -2   6   4 412.227 12.5917   3
  -2   6   4 431.002 28.0289   1
   1  -6  -4 24.6033 1.93552   2
   1  -6  -4 30.6823 8.32331   1
   1  -6  -4 28.3911 8.83716   1
  -1   6   4 27.0691 1.91422   2
  -1   6   4 26.3622 9.23990   1
  -1   6   4 24.8345 2.15309   3
   0  -6  -4 26.4956 7.67678   1
   0  -6  -4 19.9590 6.42508   1
   0   6   4 25.7168 1.73382   2
   0   6   4 14.9014 7.50685   1
  -1  -6  -4 65.0867 8.06237   1
  -1  -6  -4 65.2705 7.75082   1
   1   6   4 70.5996 2.79493   2
   1   6   4 69.1362 9.18323   1
  -2  -6  -4 595.193 19.2388   1
  -2  -6  -4 597.888 18.9814   1
  -2  -6  -4 568.954 15.9937   2
   2   6   4 586.365 15.9526   2
  -3  -6  -4 47.5309 2.65125   2
   3   6   4 51.1153 2.25311   2
   4   6   4 50.0841 2.31584   2
   5   6   4 1.76918 0.81677   2
   5   6   4 0.65356 2.11095   1
   6   6   4 15.8242 1.69716   2
   6   6   4 23.7450 4.67896   1
   6   6   4 14.5353 1.56494   2
   7   6   4 147.499 5.46463   2
   7   6   4 156.240 5.44698   2
   7   6   4 171.161 12.8372   1
   8   6   4 3.06114 1.21578   2
   8   6   4 -0.1642 7.34462   1
   9   6   4 21.6059 10.9747   1
   9   6   4 36.3256 2.91820   2
  10   6   4 20.4446 23.0697   1
  10   6   4 8.16746 1.95376   2
  11   6   4 1.14294 1.50952   2
  12   6   4 3.29053 1.74983   2
   6  -7  -4 -59.536 36.3255   1
   6  -7  -4 1.22314 1.47494   2
  -6   7   4 -29.843 34.0026   1
  -6   7   4 3.27458 1.90808   3
   5  -7  -4 15.6231 2.03516   2
   5  -7  -4 8.01528 22.9881   1
   5  -7  -4 15.5278 22.1253   1
  -5   7   4 -25.306 26.9356   1
  -5   7   4 16.1716 2.64562   3
   4  -7  -4 14.6732 15.7090   1
   4  -7  -4 16.3104 1.95694   2
   4  -7  -4 -19.316 17.1780   1
  -4   7   4 20.9437 2.87568   3
  -4   7   4 5.39272 18.3314   1
   3  -7  -4 -1.4490 0.86248   2
   3  -7  -4 -2.6446 13.3165   1
  -3   7   4 3.05021 1.67177   3
  -3   7   4 28.9285 26.2703   1
   2  -7  -4 2.28005 1.10067   2
   2  -7  -4 -1.2879 9.47292   1
   2  -7  -4 -8.3210 9.88165   1
  -2   7   4 1.35661 10.7528   1
  -2   7   4 2.89011 1.25874   3
   1  -7  -4 13.0270 1.54235   2
   1  -7  -4 13.8961 8.66213   1
   1  -7  -4 18.7938 9.56761   1
  -1   7   4 14.3306 1.43510   2
  -1   7   4 12.2203 1.71104   3
  -1   7   4 8.52130 9.17041   1
   0  -7  -4 137.161 22.9425   1
   0  -7  -4 135.480 4.73301   2
   0   7   4 132.397 4.65737   2
   0   7   4 149.789 16.4360   1
  -1  -7  -4 104.390 10.1890   1
  -1  -7  -4 120.814 4.29330   2
  -1  -7  -4 136.229 11.7467   1
   1   7   4 126.318 14.2900   1
   1   7   4 118.861 4.19762   2
  -2  -7  -4 152.354 5.60382   2
  -2  -7  -4 173.893 9.20173   1
  -2  -7  -4 158.022 8.47248   1
   2   7   4 160.906 5.14656   2
   2   7   4 149.884 12.5416   1
  -3  -7  -4 46.9985 2.40677   2
   3   7   4 42.7810 2.18463   2
   4   7   4 8.79747 1.06833   2
   5   7   4 42.0214 2.25818   2
   6   7   4 57.6384 2.83977   2
   7   7   4 2.64345 1.21931   2
   7   7   4 5.27822 1.12937   2
   7   7   4 5.54769 4.32324   1
   8   7   4 163.748 13.7279   1
   8   7   4 156.045 5.73112   2
   8   7   4 154.415 5.68862   2
   9   7   4 51.7997 11.0688   1
   9   7   4 58.3161 3.46984   2
  10   7   4 0.22390 1.28599   2
  10   7   4 -1.3767 11.8720   1
  11   7   4 2.16428 1.52221   2
  12   7   4 3.05490 1.78041   2
   5  -8  -4 59.8619 62.1566   1
  -5   8   4 -47.614 36.7089   1
   4  -8  -4 14.3467 22.1459   1
   4  -8  -4 32.2344 23.9523   1
  -4   8   4 9.59534 24.0291   1
   3  -8  -4 29.6695 2.53307   2
   3  -8  -4 19.4945 18.1467   1
  -3   8   4 66.2516 24.6173   1
  -3   8   4 31.7591 3.20745   3
   2  -8  -4 6.93575 11.8863   1
   2  -8  -4 8.35556 1.38467   2
   2  -8  -4 -11.822 11.6829   1
  -2   8   4 6.46355 1.93393   3
  -2   8   4 14.2615 13.5720   1
   1  -8  -4 78.6362 13.0827   1
   1  -8  -4 62.2585 14.2238   1
   1  -8  -4 70.0558 3.37882   2
  -1   8   4 56.0306 15.2523   1
  -1   8   4 68.0465 3.86088   3
   0  -8  -4 141.078 18.3632   1
   0  -8  -4 155.942 15.8066   1
   0  -8  -4 159.090 5.41904   2
   0   8   4 151.978 5.29885   2
   0   8   4 161.737 18.1060   1
  -1  -8  -4 14.5920 1.50827   2
  -1  -8  -4 14.5636 6.75220   1
  -1  -8  -4 16.2344 6.41121   1
   1   8   4 13.1849 1.44168   2
   1   8   4 17.2308 8.94972   1
  -2  -8  -4 20.7680 4.47572   1
  -2  -8  -4 24.2445 1.94258   2
  -2  -8  -4 24.1088 4.33241   1
   2   8   4 19.4076 1.74412   2
   2   8   4 21.9658 7.97787   1
  -3  -8  -4 321.132 9.22639   2
   3   8   4 310.799 9.11265   2
   3   8   4 294.469 16.6586   1
   4   8   4 83.8964 3.34912   2
   5   8   4 6.98167 1.09561   2
   6   8   4 1.09154 0.81294   2
   7   8   4 23.1130 2.17265   2
   8   8   4 80.6562 3.76730   2
   8   8   4 71.9460 8.32150   1
   9   8   4 -11.248 7.72363   1
   9   8   4 4.29110 1.38062   2
  10   8   4 27.1020 12.1105   1
  10   8   4 31.4735 15.9652   1
  10   8   4 39.9024 3.14884   2
  11   8   4 -3.8838 14.6104   1
  12   8   4 -20.151 21.8828   1
  12   8   4 5.85997 1.88673   2
  -4   9   4 20.5860 37.1711   1
   3  -9  -4 1.89023 1.47376   2
   3  -9  -4 -26.343 22.1674   1
  -3   9   4 16.6466 27.5059   1
  -3   9   4 0.25900 1.72725   3
   2  -9  -4 26.0921 20.2764   1
   2  -9  -4 -4.3299 14.9791   1
   2  -9  -4 11.7655 1.68179   2
  -2   9   4 -4.9353 19.9887   1
  -2   9   4 8.60041 1.82153   3
   1  -9  -4 -9.8150 17.1997   1
   1  -9  -4 1.91024 11.4355   1
   1  -9  -4 2.62634 1.24086   2
  -1   9   4 0.17450 1.11217   2
  -1   9   4 3.00151 1.49511   3
  -1   9   4 -4.7221 13.1022   1
   0  -9  -4 21.2291 2.01216   2
   0  -9  -4 7.68948 9.41526   1
   0  -9  -4 32.0371 12.1252   1
   0   9   4 9.92662 12.2455   1
  -1  -9  -4 4.91329 7.76327   1
  -1  -9  -4 3.73937 1.12650   2
  -1  -9  -4 2.97402 6.59195   1
   1   9   4 4.85640 1.14729   2
  -2  -9  -4 252.865 7.67349   2
  -2  -9  -4 258.988 11.8523   1
  -2  -9  -4 229.922 11.1759   1
   2   9   4 212.805 19.3391   1
   2   9   4 249.733 7.60746   2
  -3  -9  -4 11.6149 1.50439   2
   3   9   4 10.2765 1.27105   2
   3   9   4 22.7141 7.81326   1
   4   9   4 1.81836 0.85947   2
   5   9   4 122.736 4.47957   2
   6   9   4 20.9941 1.87978   2
   7   9   4 17.3757 1.84628   2
   7   9   4 13.9975 1.53477   2
   8   9   4 3.16347 1.20425   2
   9   9   4 44.9024 3.10455   2
  10   9   4 99.2287 10.6791   1
  10   9   4 95.1871 10.8009   1
  10   9   4 104.255 4.83926   2
  11   9   4 -13.438 13.1793   1
  11   9   4 -0.3792 1.31573   2
  12   9   4 30.4407 3.09663   2
   3 -10  -4 8.93170 1.67926   2
  -3  10   4 14.9156 3.04050   3
   2 -10  -4 5.50493 23.9333   1
  -2  10   4 4.72237 1.93040   3
  -2  10   4 27.5142 27.7724   1
   1 -10  -4 -1.5669 16.6900   1
   1 -10  -4 8.01843 17.4519   1
   1 -10  -4 4.02811 1.34393   2
  -1  10   4 7.37777 2.22457   3
  -1  10   4 15.0595 19.4475   1
   0 -10  -4 18.6835 13.0257   1
   0 -10  -4 2.74239 12.6037   1
   0 -10  -4 2.61905 1.13606   2
   0  10   4 4.39443 16.3590   1
  -1 -10  -4 33.0602 9.50788   1
  -1 -10  -4 40.5821 10.3535   1
  -1 -10  -4 34.9101 2.41130   2
   1  10   4 36.0392 2.31695   2
   1  10   4 29.7296 14.8756   1
  -2 -10  -4 19.7059 1.86958   2
   2  10   4 21.6028 11.4052   1
   2  10   4 20.9299 1.84378   2
  -3 -10  -4 0.84651 1.02755   2
   3  10   4 -0.0356 9.03663   1
   3  10   4 1.21615 0.90527   2
   4  10   4 131.996 4.72862   2
   5  10   4 64.8801 3.00582   2
   6  10   4 9.96218 1.47403   2
   7  10   4 -0.7484 0.94169   2
   7  10   4 -0.7993 1.06061   2
   8  10   4 0.96059 1.02118   2
   9  10   4 3.31857 1.39067   2
  10  10   4 4.63791 1.52430   2
  11  10   4 9.47791 1.84427   2
  12  10   4 3.69007 1.93934   2
   2 -11  -4 -0.2155 1.20530   2
  -2  11   4 1.21242 1.71881   3
   1 -11  -4 6.62895 21.3679   1
  -1  11   4 10.2442 2.50343   3
  -1  11   4 19.3824 27.6500   1
   0 -11  -4 19.9263 18.4379   1
   0  11   4 16.3674 23.6748   1
  -1 -11  -4 5.97139 1.32611   2
  -1 -11  -4 -0.8691 10.5022   1
  -1 -11  -4 -1.3751 9.42562   1
   1  11   4 19.4210 18.1369   1
  -2 -11  -4 15.2437 1.72433   2
   2  11   4 5.24238 14.3564   1
   2  11   4 13.5001 1.52817   2
   3  11   4 29.3144 2.17731   2
   4  11   4 27.8755 2.10302   2
   5  11   4 2.36261 0.98013   2
   6  11   4 -2.1839 0.76724   2
   7  11   4 0.48352 1.07726   2
   8  11   4 7.40425 1.44425   2
   9  11   4 -0.7592 1.14429   2
  10  11   4 -0.8581 1.17461   2
  11  11   4 3.98354 1.52048   2
   1 -12  -4 15.9134 1.98021   2
  -1  12   4 17.7237 3.72681   3
   0 -12  -4 59.4370 22.0608   1
   0  12   4 62.9441 4.84629   3
   1  12   4 11.4570 24.8402   1
  -2 -12  -4 4.59215 1.26475   2
   2  12   4 -6.6254 18.4849   1
   7  12   4 5.09432 1.27441   2
   8  12   4 3.18386 1.18306   2
   9  12   4 0.58567 1.20031   2
  10  12   4 0.92811 1.20842   2
  -1 -13  -4 6.84683 1.47334   2
   1  13   4 4.80658 2.22320   3
   7  13   4 4.33386 1.26093   2
   8  13   4 44.7498 2.86715   2
   9  13   4 17.4818 2.03605   2
   7  14   4 84.3903 3.91946   2
   6  13  -5 -2.6887 21.7521   1
   5  13  -5 6.44313 22.4998   1
   4  13  -5 32.3378 35.5886   1
   3  13  -5 34.9155 29.1026   1
   9  12  -5 -6.6048 28.1273   1
   9  12  -5 3.57239 1.09291   2
   8  12  -5 7.55526 18.3278   1
   7  12  -5 29.5712 17.8935   1
   6  12  -5 -6.6187 16.4651   1
   4  12  -5 3.10262 18.3429   1
   3  12  -5 -8.1429 19.3471   1
   2  12  -5 31.2986 23.4380   1
  -2 -12   5 8.40032 11.5367   1
   1  12  -5 -31.911 28.9594   1
  -1 -12   5 12.1856 16.9812   1
  10  11  -5 33.8058 27.1240   1
   9  11  -5 29.3702 19.3415   1
   8  11  -5 8.34291 15.5849   1
   7  11  -5 11.8520 1.10635   2
   7  11  -5 0.29008 15.4224   1
   7  11  -5 12.6337 1.20497   2
   6  11  -5 -5.0276 13.2058   1
   5  11  -5 36.8347 15.0525   1
   4  11  -5 20.3040 14.1545   1
   3  11  -5 22.0835 16.0416   1
  -3 -11   5 23.4612 6.97048   1
   2  11  -5 -18.653 15.4781   1
   1  11  -5 7.73080 17.8739   1
  -1 -11   5 4.31103 13.0792   1
   0  11  -5 12.3011 22.4173   1
   0 -11   5 7.93741 17.2959   1
  -1  11  -5 -25.279 27.1749   1
   1 -11   5 19.2124 23.7017   1
   2 -11   5 89.8868 39.5961   1
  10  10  -5 0.88424 21.6235   1
  10  10  -5 0.88483 2.46656   2
   9  10  -5 3.85273 18.9823   1
   9  10  -5 1.13557 1.05383   2
   8  10  -5 18.4639 15.4953   1
   7  10  -5 -7.4325 11.5504   1
   7  10  -5 4.72529 1.30329   2
   7  10  -5 0.64147 0.73055   2
   6  10  -5 74.2297 2.53019   2
   6  10  -5 51.6112 12.5611   1
   6  10  -5 73.6285 2.57514   2
   5  10  -5 -21.821 10.2347   1
   4  10  -5 2.57233 11.1355   1
   3  10  -5 -7.1554 11.6789   1
  -3 -10   5 -2.9453 6.42675   1
  -2 -10   5 -10.700 8.24944   1
   1  10  -5 11.9573 14.3827   1
  -1 -10   5 15.5401 11.4549   1
   0  10  -5 15.3953 16.9160   1
   0 -10   5 36.3684 14.7544   1
  -1  10  -5 7.37435 21.2807   1
   2 -10   5 17.4645 22.4071   1
  -3  10  -5 -7.3130 31.3626   1
   3 -10   5 -29.978 29.2593   1
  -4  10  -5 77.0337 5.11369   3
   4 -10   5 69.2281 3.12424   2
  11   9  -5 2.35845 1.47416   2
  10   9  -5 22.2288 20.3233   1
   9   9  -5 21.0217 16.1842   1
   8   9  -5 19.1705 1.90884   2
   8   9  -5 17.3673 13.5513   1
   8   9  -5 47.2093 13.1746   1
   7   9  -5 52.7931 13.2778   1
   7   9  -5 64.5591 2.82187   2
   7   9  -5 68.3890 2.80099   2
   6   9  -5 103.438 3.51863   2
   6   9  -5 107.293 3.55801   2
   6   9  -5 108.502 13.9488   1
   5   9  -5 11.6430 0.93220   2
   5   9  -5 14.6099 9.33202   1
   5   9  -5 12.4527 1.00018   2
   4   9  -5 54.2991 11.8532   1
   3   9  -5 30.3892 10.1124   1
  -3  -9   5 24.2086 6.80967   1
   2   9  -5 45.3333 12.5093   1
  -2  -9   5 40.2500 9.83196   1
   1   9  -5 52.4652 14.4527   1
  -1  -9   5 48.9050 11.6327   1
   0   9  -5 3.65795 12.3742   1
   0  -9   5 -20.589 10.7029   1
  -1   9  -5 7.79920 13.8541   1
   1  -9   5 -8.8804 13.2415   1
   2  -9   5 -3.1284 15.8944   1
  -3   9  -5 0.13973 24.8067   1
   3  -9   5 20.6616 23.8978   1
  -4   9  -5 13.0156 30.2897   1
   4  -9   5 25.8288 27.6519   1
  -5   9  -5 7.11660 2.33685   3
   5  -9   5 7.50860 1.30663   2
  11   8  -5 15.0174 1.95946   2
  10   8  -5 -10.223 20.1311   1
   9   8  -5 -6.5294 15.7844   1
   9   8  -5 4.25692 15.0221   1
   9   8  -5 1.78917 1.18644   2
   8   8  -5 -0.0322 0.95181   2
   8   8  -5 -2.9649 13.2522   1
   8   8  -5 -21.626 11.0358   1
   7   8  -5 118.071 4.20286   2
   7   8  -5 100.694 14.3782   1
   6   8  -5 0.29684 0.89667   2
   6   8  -5 4.59088 8.86971   1
   5   8  -5 78.8433 12.1942   1
   5   8  -5 88.1044 2.97530   2
   5   8  -5 89.0656 2.97153   2
   4   8  -5 18.4252 8.19469   1
  -4  -8   5 13.1300 4.96427   1
   3   8  -5 147.372 15.6555   1
  -3  -8   5 130.805 12.0084   1
   2   8  -5 31.9330 10.3249   1
  -2  -8   5 32.2826 7.83149   1
   1   8  -5 -4.5185 7.63918   1
  -1  -8   5 6.08934 7.88349   1
   0   8  -5 49.0065 13.7605   1
   0  -8   5 41.0694 11.1323   1
  -1   8  -5 -1.1211 12.8464   1
   1  -8   5 24.6712 11.7231   1
   2  -8   5 19.7543 1.33943   2
  -3   8  -5 1.07831 0.79685   2
  -3   8  -5 -7.5205 16.3269   1
   3  -8   5 0.91049 0.81255   2
   3  -8   5 8.09229 15.8530   1
  -4   8  -5 30.5623 3.01044   3
  -4   8  -5 20.2261 22.4214   1
   4  -8   5 28.8041 2.05954   2
   4  -8   5 35.3913 20.9883   1
  -5   8  -5 3.28185 1.66692   3
  -5   8  -5 -6.9214 28.1286   1
   5  -8   5 -14.673 25.8850   1
   5  -8   5 5.78634 1.26812   2
  -6   8  -5 0.68507 1.83121   3
  -6   8  -5 -66.950 43.5385   1
   6  -8   5 -0.3349 1.12092   2
  11   7  -5 10.6603 30.8009   1
  10   7  -5 1.26030 1.21257   2
  10   7  -5 -19.336 18.4168   1
 -10  -7   5 0.62815 1.76079   3
   9   7  -5 22.9632 15.4646   1
   9   7  -5 13.4736 14.5622   1
   8   7  -5 1.87626 1.13287   2
   8   7  -5 -3.7967 11.3095   1
   8   7  -5 1.85541 11.1577   1
  -8  -7   5 4.37553 1.61909   3
   7   7  -5 12.2878 1.41983   2
   7   7  -5 9.85616 10.0562   1
   7   7  -5 32.4989 11.4349   1
   6   7  -5 11.0832 1.25766   2
   6   7  -5 15.4755 7.88127   1
   5   7  -5 344.125 21.1124   1
   5   7  -5 327.475 9.22042   2
   4   7  -5 -1.1903 5.75609   1
   4   7  -5 1.31454 0.53082   2
   4   7  -5 1.32854 0.56588   2
  -4  -7   5 0.03713 4.40633   1
   3   7  -5 1250.40 45.7548   1
  -3  -7   5 1302.25 42.4605   1
   2   7  -5 46.2073 9.49516   1
  -2  -7   5 43.0485 8.45926   1
   1   7  -5 1153.07 45.7369   1
  -1  -7   5 1171.51 42.9660   1
   0   7  -5 72.5969 12.9325   1
   0  -7   5 93.2376 13.0666   1
  -1   7  -5 1.70586 9.93589   1
   2  -7   5 7.44473 10.6368   1
  -3   7  -5 2.38349 0.87366   2
  -3   7  -5 16.5101 13.3624   1
   3  -7   5 -4.7972 12.7159   1
  -4   7  -5 5.81906 16.9253   1
  -4   7  -5 -2.1415 0.83327   2
   4  -7   5 0.05914 0.82589   2
   4  -7   5 -4.0003 14.4932   1
  -5   7  -5 7.47124 22.1541   1
   5  -7   5 3.06840 21.7742   1
  -6   7  -5 12.6326 30.9119   1
  -6   7  -5 12.6166 2.53998   3
   6  -7   5 41.7511 28.9470   1
   6  -7   5 13.8148 1.66568   2
  -7   7  -5 1.13472 1.83704   3
  -7   7  -5 1.25026 44.0506   1
   7  -7   5 -0.2128 1.17569   2
  11   6  -5 32.1814 30.3356   1
  10   6  -5 16.7624 2.22206   2
  10   6  -5 17.4411 19.2930   1
 -10  -6   5 24.4409 3.03318   3
   9   6  -5 33.7196 14.7591   1
   9   6  -5 29.2018 27.7275   1
   8   6  -5 93.3506 16.2485   1
   8   6  -5 87.5671 3.88171   2
   8   6  -5 74.0284 15.0161   1
  -8  -6   5 89.4279 4.57786   3
   7   6  -5 -3.3641 8.80804   1
   7   6  -5 16.4204 10.5759   1
   7   6  -5 3.28573 1.09391   2
   6   6  -5 -3.6908 6.75278   1
   5   6  -5 2.55564 6.28533   1
   4   6  -5 101.038 11.6799   1
   4   6  -5 110.571 3.41496   2
   3   6  -5 3.44599 5.33309   1
  -3  -6   5 10.5393 4.81591   1
   2   6  -5 75.1878 10.4739   1
  -2  -6   5 65.9274 8.84916   1
   1   6  -5 138.358 14.2738   1
  -1  -6   5 149.483 13.0759   1
   0   6  -5 275.779 20.0031   1
   0  -6   5 294.549 18.1885   1
  -1   6  -5 32.7508 10.0481   1
   1  -6   5 23.6206 10.1580   1
  -2   6  -5 37.7552 1.72254   2
   2  -6   5 34.0503 1.66712   2
   2  -6   5 44.7903 11.5417   1
  -3   6  -5 95.2092 16.8173   1
   3  -6   5 108.738 16.5034   1
   3  -6   5 123.536 4.02905   2
  -4   6  -5 10.9975 2.02861   3
  -4   6  -5 8.96732 1.21717   2
  -4   6  -5 5.84143 13.1701   1
   4  -6   5 10.8619 13.0429   1
   4  -6   5 7.36692 1.17378   2
  -5   6  -5 -1.8791 1.12658   3
  -5   6  -5 12.8137 18.7940   1
  -5   6  -5 1.73208 0.94988   2
   5  -6   5 -14.011 15.7387   1
   5  -6   5 0.05396 0.93348   2
  -6   6  -5 8.56052 26.3937   1
  -6   6  -5 3.61686 1.67774   3
   6  -6   5 2.86079 1.21875   2
   6  -6   5 32.4578 22.6421   1
  -7   6  -5 -0.0005 1.48416   3
  -7   6  -5 71.1697 32.4237   1
   7  -6   5 1.53916 1.34101   2
   7  -6   5 -18.335 35.4893   1
  -8   6  -5 38.7826 50.8373   1
  11   5  -5 52.9864 30.1077   1
  10   5  -5 18.6839 2.37000   2
  10   5  -5 26.1306 19.6105   1
 -10  -5   5 16.5384 2.73429   3
   9   5  -5 24.1566 17.3676   1
   9   5  -5 4.87766 14.6854   1
   9   5  -5 0.23224 1.06873   2
  -9  -5   5 0.94962 1.50302   3
   8   5  -5 19.0743 1.91936   2
   8   5  -5 17.7674 11.3991   1
   8   5  -5 17.0259 13.5270   1
  -8  -5   5 21.6043 2.69797   3
  -8  -5   5 15.3217 1.70799   2
   7   5  -5 57.8588 3.05844   2
   7   5  -5 51.9615 12.3066   1
   7   5  -5 60.7441 12.5071   1
  -7  -5   5 62.6006 2.97812   2
  -7  -5   5 66.0351 3.59353   3
   6   5  -5 270.773 8.10587   2
   6   5  -5 288.908 20.0804   1
   6   5  -5 263.403 24.5941   1
  -6  -5   5 260.011 8.03842   2
  -6  -5   5 277.964 8.87431   3
   5   5  -5 1.91063 5.52289   1
   5   5  -5 0.19137 0.70854   2
  -5  -5   5 -0.1344 0.92714   3
   4   5  -5 2.36576 4.67512   1
   4   5  -5 1.07780 0.59133   2
  -4  -5   5 0.50581 0.86871   3
  -4  -5   5 1.47081 0.57381   2
   3   5  -5 131.041 11.8008   1
   3   5  -5 132.791 3.79411   2
  -3  -5   5 127.470 10.5331   1
   2   5  -5 162.702 12.7133   1
  -2  -5   5 193.339 12.3033   1
   1   5  -5 532.889 24.6030   1
  -1  -5   5 534.954 23.4788   1
   0   5  -5 0.96540 4.69039   1
  -1   5  -5 175.363 15.9642   1
   1  -5   5 185.088 5.05342   2
   1  -5   5 192.082 15.1257   1
  -2   5  -5 61.0466 2.21010   2
   2  -5   5 51.0202 10.3110   1
   2  -5   5 58.6561 2.16465   2
  -3   5  -5 5.59455 0.90518   2
  -3   5  -5 14.1549 10.4836   1
   3  -5   5 5.26433 0.86623   2
   3  -5   5 2.49544 8.57466   1
  -4   5  -5 46.4782 2.32476   2
  -4   5  -5 42.8453 2.72764   3
  -4   5  -5 46.9647 14.3719   1
   4  -5   5 43.1861 2.56321   2
   4  -5   5 39.4940 12.2119   1
  -5   5  -5 344.075 10.3522   2
  -5   5  -5 367.480 31.7905   1
  -5   5  -5 346.997 10.9162   3
   5  -5   5 367.545 30.6092   1
   5  -5   5 350.151 10.2943   2
  -6   5  -5 83.9795 4.11646   3
  -6   5  -5 86.7864 21.0297   1
  -6   5  -5 69.5180 3.45856   2
   6  -5   5 73.4873 3.54998   2
   6  -5   5 70.6763 21.2461   1
  -7   5  -5 118.411 27.8643   1
  -7   5  -5 103.642 4.98866   3
   7  -5   5 101.570 4.49401   2
   7  -5   5 116.946 32.5000   1
  -8   5  -5 20.4972 2.79157   3
  -8   5  -5 38.4750 60.2608   1
   8  -5   5 39.1373 34.3779   1
   8  -5   5 17.9679 2.19548   2
  11   4  -5 1.41160 49.6792   1
  11   4  -5 41.3381 3.82658   2
 -11  -4   5 42.3604 4.20593   3
  10   4  -5 20.1183 2.34937   2
  10   4  -5 35.3803 22.1098   1
 -10  -4   5 9.88295 2.20951   3
   9   4  -5 15.3930 17.6323   1
   9   4  -5 5.69593 1.50277   2
   9   4  -5 -10.805 13.0219   1
  -9  -4   5 11.6300 2.36256   3
   8   4  -5 3.82482 12.4262   1
   8   4  -5 -15.651 10.8543   1
   8   4  -5 1.86795 1.16630   2
  -8  -4   5 1.41330 1.25827   3
   7   4  -5 15.1562 10.1099   1
   7   4  -5 35.3552 2.55075   2
   7   4  -5 48.9566 13.2580   1
  -7  -4   5 28.0581 2.13695   2
  -7  -4   5 32.1313 2.71087   3
   6   4  -5 245.432 19.8705   1
   6   4  -5 261.155 7.99258   2
   6   4  -5 247.280 20.4559   1
  -6  -4   5 267.028 7.97543   2
  -6  -4   5 273.327 8.64900   3
   5   4  -5 58.1316 9.67333   1
  -5  -4   5 76.0501 2.95423   2
  -5  -4   5 81.8480 3.51453   3
   4   4  -5 54.4929 2.18622   2
   4   4  -5 40.0116 7.88363   1
  -4  -4   5 50.1202 2.58679   3
  -4  -4   5 56.6044 2.16497   2
   3   4  -5 103.943 3.22115   2
   3   4  -5 96.8324 10.1803   1
  -3  -4   5 107.818 3.89772   3
  -3  -4   5 106.850 3.22141   2
  -3  -4   5 104.011 9.21050   1
   2   4  -5 658.894 26.6504   1
   2   4  -5 660.606 17.2041   2
  -2  -4   5 677.406 17.2193   2
  -2  -4   5 655.414 25.3712   1
   1   4  -5 36.0727 6.77865   1
   0   4  -5 15.1790 5.48929   1
   0  -4   5 23.5699 7.99993   1
  -1   4  -5 18.2126 6.58749   1
   1  -4   5 10.6132 0.71358   2
   1  -4   5 5.43415 4.90842   1
   2  -4   5 48.2917 1.82519   2
   2  -4   5 36.9480 8.42435   1
  -3   4  -5 57.1571 11.8315   1
  -3   4  -5 65.8281 2.59193   2
   3  -4   5 71.5979 2.60365   2
   3  -4   5 67.3219 19.0869   1
  -4   4  -5 2.62251 0.86798   2
  -4   4  -5 2.44729 0.98126   3
  -4   4  -5 1.31786 8.72505   1
   4  -4   5 8.91135 9.18851   1
   4  -4   5 3.51949 0.93417   2
  -5   4  -5 19.2016 1.99427   3
  -5   4  -5 20.3982 1.86939   2
  -5   4  -5 10.3751 11.7976   1
   5  -4   5 22.5165 1.96450   2
   5  -4   5 32.7446 12.7417   1
  -6   4  -5 30.5713 2.53674   3
  -6   4  -5 40.3651 2.57370   2
  -6   4  -5 17.8710 15.8619   1
   6  -4   5 9.44837 15.1881   1
   6  -4   5 30.2100 2.36643   2
  -7   4  -5 -33.322 20.3080   1
   7  -4   5 -8.1307 19.6235   1
  -8   4  -5 0.45633 25.4062   1
  -8   4  -5 1.29133 1.40171   3
   8  -4   5 0.64678 1.33640   2
   8  -4   5 18.1818 32.0753   1
   9  -4   5 92.4456 46.8998   1
  11   3  -5 2.94208 1.73297   2
 -11  -3   5 -0.1645 1.76255   3
  10   3  -5 27.4051 28.7545   1
   9   3  -5 47.8309 18.8798   1
   9   3  -5 34.0142 19.7907   1
  -9  -3   5 31.2191 3.22440   3
   8   3  -5 6.86362 12.5637   1
   8   3  -5 1.75660 1.32412   2
   8   3  -5 8.91959 13.0028   1
   7   3  -5 107.180 17.2264   1
   7   3  -5 106.184 4.27708   2
   7   3  -5 76.5027 13.6703   1
  -7  -3   5 102.172 4.60936   3
   6   3  -5 70.7612 11.8282   1
   6   3  -5 100.893 14.2686   1
   6   3  -5 96.4229 3.86683   2
  -6  -3   5 96.7138 3.80218   2
  -6  -3   5 100.496 4.25382   3
   5   3  -5 40.5279 2.26437   2
   5   3  -5 40.5954 9.87226   1
   5   3  -5 21.5665 7.16116   1
  -5  -3   5 43.1702 2.48481   3
  -5  -3   5 40.0279 2.09517   2
   4   3  -5 219.735 6.40557   2
   4   3  -5 221.846 15.5249   1
  -4  -3   5 213.966 6.37959   2
   3   3  -5 164.383 12.2327   1
   3   3  -5 159.346 4.81532   2
  -3  -3   5 167.733 4.82755   2
  -3  -3   5 166.614 5.34095   3
   2   3  -5 417.575 18.8720   1
   2   3  -5 400.372 10.4922   2
  -2  -3   5 393.352 10.4843   2
  -2  -3   5 383.110 11.0726   3
   1   3  -5 1980.18 60.4367   1
   0   3  -5 234.060 14.1388   1
   0  -3   5 217.641 13.4744   1
  -1   3  -5 187.416 13.7717   1
   1  -3   5 198.578 14.1462   1
   1  -3   5 198.863 5.32671   2
   2  -3   5 700.517 18.5328   2
   2  -3   5 717.110 30.0589   1
  -3   3  -5 18.4975 8.03723   1
   3  -3   5 41.3640 9.21513   1
   3  -3   5 39.8481 1.78469   2
  -4   3  -5 10.0365 8.17986   1
  -4   3  -5 15.3598 1.49489   2
  -4   3  -5 18.0195 1.54301   3
   4  -3   5 0.29111 7.78685   1
  -5   3  -5 110.109 4.08004   2
  -5   3  -5 103.528 4.13572   3
  -5   3  -5 129.844 18.4273   1
   5  -3   5 110.711 4.09569   2
   5  -3   5 127.663 17.3720   1
  -6   3  -5 23.8027 2.07209   3
  -6   3  -5 24.4313 2.12328   2
  -6   3  -5 18.8079 12.9592   1
   6  -3   5 24.3685 2.20249   2
   6  -3   5 32.4384 13.8986   1
  -7   3  -5 32.6929 17.9575   1
  -7   3  -5 12.6966 1.96744   3
   7  -3   5 9.49267 1.63517   2
   7  -3   5 37.9045 18.1483   1
  -8   3  -5 14.8305 21.5240   1
   8  -3   5 2.93402 22.8024   1
  -9   3  -5 21.7013 2.65391   3
  -9   3  -5 69.1155 31.9829   1
   9  -3   5 48.4049 33.2221   1
   9  -3   5 18.2277 2.18206   2
 -10   3  -5 8.03509 2.04838   3
  10  -3   5 8.33143 2.09684   2
  11   2  -5 -4.7115 2.65934   2
 -11  -2   5 -0.0164 2.05588   3
  10   2  -5 -6.2939 25.3165   1
  10   2  -5 3.37775 31.4051   1
  10   2  -5 -1.0912 1.37007   2
 -10  -2   5 1.82087 1.91052   3
   9   2  -5 0.10043 21.1487   1
   9   2  -5 -1.6016 16.0447   1
   8   2  -5 19.4019 1.98118   2
   8   2  -5 12.7503 14.7789   1
   8   2  -5 36.7235 17.9363   1
  -8  -2   5 29.4232 2.83167   3
   7   2  -5 5.77790 1.19636   2
   7   2  -5 7.42323 10.8168   1
   7   2  -5 1.20886 10.4379   1
  -7  -2   5 9.08624 1.30607   2
  -7  -2   5 2.77569 1.41657   3
   6   2  -5 67.5493 3.17369   2
   6   2  -5 69.7919 13.2787   1
   6   2  -5 55.6863 11.6809   1
  -6  -2   5 63.5461 3.40108   3
  -6  -2   5 67.9920 3.09343   2
   5   2  -5 0.12968 7.17214   1
   5   2  -5 -0.5411 5.94121   1
   5   2  -5 1.99363 0.85199   2
  -5  -2   5 2.39836 0.88398   2
  -5  -2   5 2.23752 1.12332   3
   4   2  -5 98.9041 3.38426   2
   4   2  -5 69.4661 10.1227   1
  -4  -2   5 92.9185 3.63283   3
   3   2  -5 59.1891 8.67234   1
   3   2  -5 68.6022 2.50269   2
  -3  -2   5 67.3772 2.78185   3
  -3  -2   5 66.1251 2.43997   2
   2   2  -5 9.92373 0.82821   2
   2   2  -5 4.68125 4.04793   1
  -2  -2   5 5.80295 4.01254   1
  -2  -2   5 9.98554 0.94672   2
   1   2  -5 109.121 3.17105   2
   1   2  -5 123.056 9.65099   1
  -1  -2   5 109.673 3.57058   3
  -1  -2   5 109.740 3.16681   2
  -1  -2   5 121.659 9.17226   1
   0   2  -5 4829.28 134.507   1
   0  -2   5 4969.70 134.483   1
  -1   2  -5 116.407 10.5433   1
   1  -2   5 127.528 3.54813   2
   1  -2   5 122.676 3.52896   2
   1  -2   5 132.765 10.6015   1
  -2   2  -5 58.0895 9.08962   1
   2  -2   5 78.9238 9.52679   1
   2  -2   5 75.0675 2.45595   2
  -3   2  -5 61.6794 10.0214   1
   3  -2   5 55.8133 2.20901   2
   3  -2   5 56.1895 9.32486   1
  -4   2  -5 390.619 22.9946   1
  -4   2  -5 340.397 9.91618   3
   4  -2   5 346.908 9.91710   2
   4  -2   5 364.767 22.6031   1
  -5   2  -5 95.9849 14.4602   1
  -5   2  -5 79.3296 3.16184   3
   5  -2   5 80.1372 13.4331   1
   5  -2   5 78.5903 3.27123   2
  -6   2  -5 70.2113 14.4584   1
  -6   2  -5 60.2677 2.91439   3
   6  -2   5 62.7650 3.08048   2
   6  -2   5 65.7134 14.9769   1
  -7   2  -5 3.93612 1.29564   3
  -7   2  -5 3.51271 12.0389   1
   7  -2   5 1.89435 1.13924   2
   7  -2   5 23.6382 15.4732   1
  -8   2  -5 5.18590 18.5524   1
   8  -2   5 11.1442 1.73502   2
   8  -2   5 -22.074 17.0663   1
  -9   2  -5 -0.8562 1.21417   3
   9  -2   5 -31.478 24.8127   1
   9  -2   5 0.72059 1.27162   2
 -10   2  -5 0.27782 1.42835   3
  10  -2   5 -15.901 42.9802   1
  10  -2   5 -2.9036 1.37974   2
  11   1  -5 3.17482 2.00985   2
 -11  -1   5 3.44066 2.10110   3
  10   1  -5 0.01760 1.56635   2
  10   1  -5 22.4101 45.8222   1
  10   1  -5 -6.3482 25.8095   1
 -10  -1   5 0.87198 1.82783   3
   9   1  -5 -13.452 21.1367   1
   9   1  -5 11.7420 2.12422   2
   9   1  -5 15.7361 18.4079   1
  -9  -1   5 14.3059 2.30686   3
   8   1  -5 9.92336 14.0301   1
   8   1  -5 14.5899 1.77173   2
   8   1  -5 27.7483 16.7026   1
  -8  -1   5 20.4832 2.74664   3
   7   1  -5 33.0635 2.67299   2
   7   1  -5 79.0217 20.8668   1
   7   1  -5 31.9858 13.3456   1
   6   1  -5 71.3804 14.2088   1
   6   1  -5 75.4644 13.0770   1
   6   1  -5 86.8234 3.78334   2
  -6  -1   5 91.3126 4.07596   3
  -6  -1   5 86.2383 3.68365   2
   5   1  -5 -5.2179 6.63118   1
   5   1  -5 -4.7028 6.35521   1
   5   1  -5 1.83839 0.86013   2
  -5  -1   5 0.72746 0.78753   2
  -5  -1   5 1.75962 0.97981   3
   4   1  -5 16.4436 6.91719   1
   4   1  -5 18.5232 6.62149   1
   4   1  -5 16.4465 1.74544   2
  -4  -1   5 16.7407 1.57326   3
  -4  -1   5 14.6884 1.41444   2
   3   1  -5 523.028 14.4011   2
   3   1  -5 542.442 24.6652   1
  -3  -1   5 538.337 14.4028   2
  -3  -1   5 533.590 14.7035   3
   2   1  -5 151.753 4.49869   2
   2   1  -5 151.007 11.4148   1
  -2  -1   5 150.270 4.46143   2
  -2  -1   5 151.794 4.73683   3
  -2  -1   5 144.440 10.8263   1
   1   1  -5 163.161 10.8211   1
   1   1  -5 171.427 4.76654   2
  -1  -1   5 172.122 4.75307   2
  -1  -1   5 173.629 10.9908   1
  -1  -1   5 163.126 4.95229   3
   0   1  -5 942.117 24.9706   2
   0   1  -5 949.862 32.5317   1
   0  -1   5 971.549 32.5200   1
   0  -1   5 977.780 24.9659   2
   0  -1   5 983.951 25.1428   3
  -1   1  -5 527.154 21.5293   1
   1  -1   5 554.866 21.8457   1
   1  -1   5 543.391 14.1958   2
  -2   1  -5 526.625 22.5113   1
   2  -1   5 521.384 13.9228   2
   2  -1   5 530.242 22.7111   1
  -3   1  -5 142.567 12.4252   1
   3  -1   5 150.707 4.52894   2
   3  -1   5 143.230 12.1711   1
  -4   1  -5 19.4121 1.22805   3
  -4   1  -5 31.2263 8.49455   1
   4  -1   5 18.8007 1.51354   2
   4  -1   5 17.0750 6.90065   1
  -5   1  -5 45.5193 2.09666   3
  -5   1  -5 44.4476 9.78305   1
   5  -1   5 38.4848 9.54707   1
   5  -1   5 48.0922 3.01911   2
  -6   1  -5 65.3065 2.91492   3
  -6   1  -5 68.4637 13.8617   1
   6  -1   5 65.3146 13.3468   1
   6  -1   5 73.4043 3.26969   2
  -7   1  -5 126.976 21.8916   1
  -7   1  -5 112.913 4.31401   3
   7  -1   5 113.909 4.59954   2
   7  -1   5 91.2028 17.3191   1
  -8   1  -5 41.2731 16.6090   1
  -8   1  -5 31.7441 2.30053   3
   8  -1   5 27.6342 16.8822   1
   8  -1   5 24.0585 2.44416   2
  -9   1  -5 18.1303 19.7557   1
  -9   1  -5 15.0971 2.00136   3
   9  -1   5 10.9338 1.94011   2
   9  -1   5 -7.1819 20.6909   1
 -10   1  -5 2.02134 1.54761   3
  10  -1   5 2.07309 1.59131   2
  10  -1   5 -32.913 29.5382   1
 -11   1  -5 2.54090 1.58115   3
  11  -1   5 3.49014 2.27311   2
  10   0  -5 15.2817 2.54552   2
  10   0  -5 18.7207 36.5053   1
 -10   0   5 16.6425 2.70161   3
   9   0  -5 -1.8093 27.7232   1
   9   0  -5 -30.973 19.9925   1
   9   0  -5 0.94912 1.48932   2
  -9   0   5 1.74090 1.63666   3
   8   0  -5 -0.7279 17.5204   1
   8   0  -5 0.57195 15.1396   1
  -8   0   5 0.32376 1.50787   3
   7   0  -5 -19.030 20.4334   1
   7   0  -5 25.9252 2.50028   2
   7   0  -5 13.3041 13.0730   1
   6   0  -5 13.2502 1.58185   2
   6   0  -5 8.12319 10.3808   1
   6   0  -5 22.4074 11.5156   1
  -6   0   5 16.1911 1.86848   2
  -6   0   5 11.8944 1.76922   3
   5   0  -5 -2.1395 7.32903   1
   5   0  -5 -8.4043 6.86244   1
   5   0  -5 0.75012 0.88030   2
  -5   0   5 0.49249 0.95999   3
  -5   0   5 -0.1498 0.78929   2
   4   0  -5 42.8429 9.20302   1
   4   0  -5 22.6686 7.81889   1
   4   0  -5 39.4479 2.84428   2
  -4   0   5 32.6058 2.10462   3
  -4   0   5 35.5650 1.99580   2
   3   0  -5 1.87756 0.77139   2
   3   0  -5 -0.8071 4.79871   1
  -3   0   5 2.33439 0.83098   3
  -3   0   5 0.90934 0.72251   2
   2   0  -5 475.100 21.5141   1
   2   0  -5 455.580 12.3555   2
  -2   0   5 446.522 12.3270   2
   1   0  -5 487.809 12.9422   2
   1   0  -5 457.063 19.8659   1
  -1   0   5 483.363 12.9146   2
  -1   0   5 485.360 13.0677   3
  -1   0   5 516.471 20.5877   1
   0   0  -5 3.36660 0.52859   2
   0   0  -5 1.13957 2.90961   1
   0   0   5 7.14564 3.38445   1
   0   0   5 4.87169 0.55613   2
   0   0   5 6.06954 0.64197   3
  -1   0  -5 2.23509 0.48115   2
  -1   0  -5 6.79566 3.71216   1
   1   0   5 3.39822 0.40330   3
   1   0   5 3.43779 3.24696   1
   1   0   5 3.39180 0.52013   2
  -2   0  -5 244.713 13.7742   1
   2   0   5 247.442 6.80638   2
   2   0   5 234.925 20.0111   1
  -3   0  -5 159.960 4.46006   3
  -3   0  -5 179.811 12.2370   1
   3   0   5 149.056 11.7838   1
   3   0   5 165.207 4.90585   2
  -4   0  -5 442.061 11.9715   3
  -4   0  -5 450.363 22.4368   1
   4   0   5 452.625 12.3675   2
   4   0   5 458.430 22.4703   1
  -5   0  -5 -3.9810 5.06572   1
  -5   0  -5 0.36375 0.56108   3
   5   0   5 -1.9181 5.68127   1
   5   0   5 0.01711 0.81506   2
  -6   0  -5 7.74684 7.24103   1
  -6   0  -5 14.0371 1.30610   3
   6   0   5 18.8013 9.03172   1
   6   0   5 12.6991 1.46257   2
  -7   0  -5 154.668 5.20505   3
  -7   0  -5 134.737 27.0134   1
   7   0   5 159.103 5.66482   2
   7   0   5 159.188 20.1165   1
  -8   0  -5 23.9948 14.0148   1
  -8   0  -5 22.3857 1.97707   3
   8   0   5 20.2888 2.11787   2
   8   0   5 16.7236 15.5396   1
  -9   0  -5 0.10378 1.08348   3
  -9   0  -5 -29.353 15.0958   1
   9   0   5 -1.5824 1.31701   2
   9   0   5 12.1037 20.0623   1
 -10   0  -5 12.7270 22.2662   1
 -10   0  -5 27.4893 2.54005   3
  10   0   5 33.1104 3.22787   2
  10   0   5 40.3540 27.1246   1
 -11   0  -5 2.59811 1.50345   3
  11   0   5 3.98500 1.91936   2
  10  -1  -5 1.13966 2.13990   2
  10  -1  -5 -1.3285 48.6371   1
 -10   1   5 -0.7306 1.82279   3
   9  -1  -5 2.99064 1.72847   2
   9  -1  -5 14.8042 29.1158   1
  -9   1   5 5.04462 2.15437   3
   8  -1  -5 0.96118 1.32358   2
   8  -1  -5 -24.812 20.1840   1
   8  -1  -5 -7.8841 17.7560   1
  -8   1   5 -1.8082 1.20018   3
   7  -1  -5 -1.4480 0.99158   2
   7  -1  -5 -24.160 12.3559   1
   7  -1  -5 -12.054 19.4833   1
  -7   1   5 1.62819 1.62632   3
   6  -1  -5 15.9996 11.0480   1
   6  -1  -5 6.62794 1.41232   2
   6  -1  -5 16.2434 12.0467   1
  -6   1   5 5.50468 1.59714   3
  -6   1   5 4.86757 1.13249   2
   5  -1  -5 112.850 4.28162   2
   5  -1  -5 72.6810 13.9494   1
   5  -1  -5 114.068 15.9725   1
  -5   1   5 106.281 4.48884   3
  -5   1   5 108.855 4.21317   2
   4  -1  -5 285.116 21.2192   1
   4  -1  -5 282.786 20.2224   1
   4  -1  -5 295.932 8.65487   2
  -4   1   5 289.518 8.95964   3
   3  -1  -5 126.290 12.8674   1
   3  -1  -5 112.678 4.40006   2
   3  -1  -5 115.219 12.1648   1
  -3   1   5 121.948 4.24562   3
   2  -1  -5 1658.26 54.4110   1
   2  -1  -5 1711.77 43.4362   2
  -2   1   5 1684.22 43.6317   3
  -2   1   5 1620.60 43.3705   2
   1  -1  -5 201.365 5.90563   2
   1  -1  -5 204.565 12.7619   1
  -1   1   5 193.307 12.7281   1
  -1   1   5 206.700 5.89241   2
  -1   1   5 210.854 6.01386   3
   0  -1  -5 9.06931 0.83885   2
   0  -1  -5 5.37550 3.33008   1
   0   1   5 1.32496 3.13102   1
   0   1   5 9.35653 0.91175   2
   0   1   5 8.51205 0.79273   3
  -1  -1  -5 46.7855 1.74673   2
  -1  -1  -5 38.3335 5.41890   1
   1   1   5 40.7966 6.34942   1
   1   1   5 43.6995 1.43467   3
   1   1   5 44.1784 1.70884   2
  -2  -1  -5 292.296 14.2332   1
   2   1   5 317.393 14.5171   1
   2   1   5 307.639 8.40414   2
  -3  -1  -5 113.055 9.56121   1
   3   1   5 107.036 9.00924   1
  -4  -1  -5 199.121 13.2817   1
   4   1   5 183.356 5.59052   2
   4   1   5 168.611 12.5659   1
  -5  -1  -5 37.8245 7.38936   1
  -5  -1  -5 36.1519 1.52639   3
   5   1   5 32.1753 7.65093   1
   5   1   5 38.4527 2.11264   2
  -6  -1  -5 46.2463 2.04487   3
  -6  -1  -5 56.3798 10.5815   1
   6   1   5 62.6154 11.6763   1
   6   1   5 50.6983 2.67561   2
  -7  -1  -5 33.7300 10.1181   1
  -7  -1  -5 25.6666 1.74395   3
   7   1   5 39.1755 11.5055   1
   7   1   5 26.0897 2.30586   2
  -8  -1  -5 -3.7932 9.85072   1
  -8  -1  -5 0.31304 0.92462   3
   8   1   5 -3.8255 12.5002   1
   8   1   5 -1.5988 0.96145   2
  -9  -1  -5 119.072 21.4477   1
  -9  -1  -5 136.770 5.07341   3
   9   1   5 164.796 25.1092   1
   9   1   5 135.685 5.63635   2
 -10  -1  -5 -5.5211 20.1470   1
 -10  -1  -5 5.56590 1.53672   3
  10   1   5 31.0896 39.1027   1
  10   1   5 6.39516 1.63259   2
 -11  -1  -5 0.86829 1.32469   3
  11   1   5 0.27056 1.69241   2
   9  -2  -5 18.0470 29.2839   1
   9  -2  -5 -4.8021 33.5977   1
   9  -2  -5 32.5529 3.36590   2
  -9   2   5 45.4756 4.11399   3
   8  -2  -5 112.609 28.3558   1
   8  -2  -5 138.312 25.5025   1
   8  -2  -5 132.892 5.82827   2
  -8   2   5 121.476 5.99227   3
   7  -2  -5 28.0942 19.9580   1
   7  -2  -5 18.5807 17.2676   1
   6  -2  -5 26.5130 14.5323   1
   6  -2  -5 38.7188 2.87474   2
   6  -2  -5 41.0709 14.8592   1
  -6   2   5 34.5689 2.88855   3
   5  -2  -5 15.6541 9.77785   1
   5  -2  -5 -6.3301 9.43589   1
   5  -2  -5 5.13325 1.27534   2
  -5   2   5 3.00012 1.29778   3
  -5   2   5 1.46594 1.23491   2
   4  -2  -5 1.13213 7.43661   1
   4  -2  -5 0.17331 0.96099   2
   4  -2  -5 13.3981 8.57518   1
  -4   2   5 0.36805 0.83607   2
  -4   2   5 0.88738 0.97730   3
   3  -2  -5 38.5270 9.83944   1
   3  -2  -5 38.4340 2.22782   2
   3  -2  -5 29.7805 8.27404   1
  -3   2   5 39.5270 2.11815   2
  -3   2   5 38.4161 2.24624   3
   2  -2  -5 443.144 22.7960   1
   2  -2  -5 501.756 23.8080   1
   2  -2  -5 475.967 13.2466   2
  -2   2   5 487.786 13.6233   2
  -2   2   5 494.253 13.4843   3
   1  -2  -5 588.873 24.3249   1
   1  -2  -5 567.467 24.1753   1
   1  -2  -5 572.670 15.4736   2
   0  -2  -5 848.488 22.5940   2
   0  -2  -5 864.449 29.8010   1
   0   2   5 849.686 22.5775   2
   0   2   5 877.808 30.3596   1
   0   2   5 862.838 22.5978   3
  -1  -2  -5 368.734 15.3428   1
  -1  -2  -5 355.915 9.96728   2
   1   2   5 370.297 9.79942   3
   1   2   5 377.743 15.7219   1
   1   2   5 362.069 9.96689   2
  -2  -2  -5 11.4067 1.12103   2
  -2  -2  -5 11.7719 3.40294   1
   2   2   5 8.59106 3.47251   1
   2   2   5 11.9821 1.08623   2
  -3  -2  -5 1358.13 41.7289   1
   3   2   5 1346.10 35.9552   2
   3   2   5 1444.12 42.8766   1
  -4  -2  -5 717.830 25.6306   1
   4   2   5 663.285 26.0580   1
  -5  -2  -5 43.8552 7.52484   1
  -5  -2  -5 64.6418 2.10582   3
   5   2   5 85.0195 9.83990   1
   5   2   5 58.9441 2.68809   2
  -6  -2  -5 18.4083 1.22436   3
  -6  -2  -5 31.0546 7.68549   1
   6   2   5 16.9553 7.04119   1
   6   2   5 14.5774 1.56250   2
  -7  -2  -5 7.52769 7.52604   1
  -7  -2  -5 0.25320 0.74580   3
   7   2   5 -7.9193 8.23891   1
   7   2   5 1.00772 1.00973   2
  -8  -2  -5 3.97081 9.08802   1
  -8  -2  -5 0.74488 0.90525   3
   8   2   5 1.99348 1.24586   2
   8   2   5 2.30284 9.81076   1
  -9  -2  -5 5.19660 12.2660   1
  -9  -2  -5 7.62699 1.38431   3
   9   2   5 8.93908 1.74986   2
   9   2   5 25.5086 15.7764   1
 -10  -2  -5 30.2211 2.37562   3
 -10  -2  -5 52.1068 18.4305   1
  10   2   5 -15.690 28.8827   1
  10   2   5 31.5287 3.03909   2
 -11  -2  -5 11.5395 1.79964   3
  11   2   5 8.88534 1.98314   2
 -12  -2  -5 6.23733 1.62717   3
  12   2   5 6.52056 2.45407   2
   9  -3  -5 35.8545 80.9662   1
   8  -3  -5 5.03363 1.55824   2
   8  -3  -5 -11.314 29.5848   1
   8  -3  -5 -15.517 24.7083   1
  -8   3   5 6.97117 2.13979   3
   7  -3  -5 34.2234 21.5784   1
   7  -3  -5 22.4431 20.4477   1
   7  -3  -5 16.2990 2.26102   2
  -7   3   5 10.6248 2.42151   3
   6  -3  -5 14.1585 17.2397   1
   6  -3  -5 9.78541 1.55339   2
   6  -3  -5 16.1307 15.5499   1
  -6   3   5 14.4217 2.44892   3
   5  -3  -5 2.19271 10.1610   1
   5  -3  -5 3.06327 1.17604   2
   5  -3  -5 21.3231 12.4169   1
  -5   3   5 9.42207 1.46476   2
  -5   3   5 6.82120 1.85738   3
   4  -3  -5 37.6384 2.55415   2
   4  -3  -5 34.0537 11.4291   1
   4  -3  -5 28.4780 10.0013   1
  -4   3   5 32.6750 2.53576   3
  -4   3   5 32.2700 2.40020   2
   3  -3  -5 18.9219 1.87019   2
   3  -3  -5 27.4271 8.90139   1
   3  -3  -5 14.0505 8.75590   1
  -3   3   5 17.1837 1.70025   2
  -3   3   5 15.6549 1.76570   3
   2  -3  -5 573.128 27.8765   1
   2  -3  -5 580.088 27.5940   1
   2  -3  -5 571.399 15.8539   2
  -2   3   5 586.669 16.1241   3
   1  -3  -5 906.363 24.9100   2
   1  -3  -5 931.769 34.8495   1
   1  -3  -5 981.570 35.9070   1
  -1   3   5 982.477 26.0156   2
  -1   3   5 920.883 25.1322   3
   0  -3  -5 67.4254 8.11233   1
   0  -3  -5 70.1429 2.60941   2
   0   3   5 66.9217 2.59253   3
   0   3   5 63.9973 2.56102   2
  -1  -3  -5 15.6230 1.27893   2
  -1  -3  -5 16.2408 4.04347   1
  -1  -3  -5 15.1615 4.28922   1
   1   3   5 1.80156 3.26203   1
   1   3   5 13.2015 1.26215   2
  -2  -3  -5 6.12053 2.87923   1
  -2  -3  -5 4.52930 0.81700   2
   2   3   5 4.00306 3.09589   1
   2   3   5 4.95044 0.83132   2
  -3  -3  -5 156.670 8.35607   1
   3   3   5 169.180 9.43487   1
   3   3   5 163.773 5.00430   2
  -4  -3  -5 42.2983 5.03482   1
   4   3   5 34.0106 2.68502   2
   4   3   5 24.1099 5.02944   1
  -5  -3  -5 72.0598 8.04965   1
   5   3   5 74.5597 3.12410   2
   5   3   5 79.9107 8.96208   1
  -6  -3  -5 -2.1145 4.68615   1
  -6  -3  -5 1.14510 0.65307   3
   6   3   5 0.63965 0.86762   2
   6   3   5 0.97218 5.59876   1
  -7  -3  -5 8.30901 6.41933   1
  -7  -3  -5 5.39316 1.15021   3
   7   3   5 5.86104 1.29393   2
   7   3   5 10.0896 7.94799   1
  -8  -3  -5 4.74672 8.70658   1
   8   3   5 -4.6016 9.50113   1
  -9  -3  -5 15.0579 11.2540   1
   9   3   5 8.89791 13.0142   1
 -10  -3  -5 16.9704 1.89391   3
 -10  -3  -5 7.49853 21.5373   1
  10   3   5 11.1035 2.07535   2
  10   3   5 15.0994 30.4803   1
 -11  -3  -5 -3.0567 1.04336   3
  11   3   5 0.01711 1.44220   2
 -12  -3  -5 0.81998 1.48705   3
  12   3   5 1.69901 1.91515   2
   8  -4  -5 22.3879 2.29657   2
   8  -4  -5 29.0665 36.4085   1
  -8   4   5 20.1013 3.16049   3
   7  -4  -5 10.2933 21.5483   1
   7  -4  -5 20.7853 25.4764   1
   7  -4  -5 6.53881 1.94957   2
  -7   4   5 5.75755 1.84665   3
   6  -4  -5 3.54254 1.38397   2
   6  -4  -5 11.0606 15.7514   1
   6  -4  -5 -5.5723 20.4153   1
  -6   4   5 2.30002 1.60734   3
   5  -4  -5 -4.1218 12.9378   1
   5  -4  -5 1.76113 1.12296   2
  -5   4   5 -0.9723 1.12484   3
   4  -4  -5 9.82096 9.74885   1
   4  -4  -5 10.8034 10.6872   1
  -4   4   5 7.31547 11.8958   1
   3  -4  -5 129.001 15.1432   1
   3  -4  -5 113.634 15.6418   1
   3  -4  -5 129.412 4.74730   2
  -3   4   5 128.363 5.05632   3
  -3   4   5 159.837 19.3148   1
  -3   4   5 132.479 4.73753   2
   2  -4  -5 366.037 21.8151   1
   2  -4  -5 361.486 10.4303   2
   2  -4  -5 375.231 23.1250   1
  -2   4   5 360.229 10.7495   3
  -2   4   5 347.048 10.3698   2
  -2   4   5 381.427 23.4749   1
   1  -4  -5 11.6261 1.19283   2
   1  -4  -5 8.37090 9.76060   1
   1  -4  -5 17.4197 5.98886   1
  -1   4   5 16.3978 1.52176   3
  -1   4   5 13.9723 1.37556   2
  -1   4   5 3.84014 6.25992   1
   0  -4  -5 2.57479 4.09143   1
   0  -4  -5 6.11385 0.93427   2
   0  -4  -5 6.77598 4.85366   1
   0   4   5 6.72833 1.03502   3
  -1  -4  -5 592.959 15.8238   2
  -1  -4  -5 574.975 22.2791   1
  -1  -4  -5 573.248 21.7603   1
   1   4   5 594.369 15.7885   2
  -2  -4  -5 11.5049 1.10182   2
  -2  -4  -5 11.8511 3.03442   1
   2   4   5 11.4718 1.10184   2
   2   4   5 10.6262 3.64804   1
  -3  -4  -5 110.759 5.08599   1
  -3  -4  -5 115.195 5.14550   1
   3   4   5 105.855 3.65623   2
   3   4   5 102.013 7.27430   1
   4   4   5 8.82777 3.40844   1
   4   4   5 19.1965 1.46158   2
  -5  -4  -5 9.26739 2.93675   1
   5   4   5 11.6270 4.76613   1
   5   4   5 9.39095 1.14263   2
  -6  -4  -5 468.335 18.2016   1
   6   4   5 438.516 12.9379   2
   6   4   5 474.577 21.5541   1
  -7  -4  -5 3.26872 0.91793   3
  -7  -4  -5 -2.1969 5.08033   1
   7   4   5 3.28357 1.15324   2
   7   4   5 -4.6075 11.4001   1
  -8  -4  -5 219.503 16.3114   1
  -8  -4  -5 207.707 6.41955   3
   8   4   5 220.675 19.3720   1
   8   4   5 199.063 7.04082   2
  -9  -4  -5 0.65535 1.03557   3
   9   4   5 -0.0429 1.15893   2
   9   4   5 -18.054 10.6990   1
 -10  -4  -5 218.475 7.02500   3
  10   4   5 203.329 7.70264   2
 -11  -4  -5 11.5830 1.73737   3
  11   4   5 7.60800 1.89342   2
 -12  -4  -5 -1.2383 1.27254   3
  12   4   5 2.56620 1.60740   2
   8  -5  -5 -2.2229 1.70969   2
  -8   5   5 0.45214 1.98921   3
   7  -5  -5 13.8290 34.2771   1
   7  -5  -5 4.70699 1.73853   2
   7  -5  -5 -11.965 30.5578   1
  -7   5   5 4.91674 2.28192   3
   6  -5  -5 59.5478 23.4368   1
   6  -5  -5 50.5513 21.4843   1
   6  -5  -5 42.3607 3.25536   2
  -6   5   5 45.2328 3.70628   3
   5  -5  -5 9.13105 1.73201   2
   5  -5  -5 -0.6370 14.0952   1
   5  -5  -5 3.12672 16.8864   1
  -5   5   5 3.98332 15.0589   1
  -5   5   5 4.25293 1.65049   3
   4  -5  -5 71.1194 16.3297   1
   4  -5  -5 62.2806 14.3018   1
   4  -5  -5 92.8082 4.05500   2
  -4   5   5 85.6024 4.41561   3
  -4   5   5 98.3512 19.4120   1
   3  -5  -5 -7.4083 8.90987   1
   3  -5  -5 9.88056 1.38535   2
   3  -5  -5 14.3688 8.88873   1
  -3   5   5 7.99428 10.6706   1
  -3   5   5 10.1973 1.68448   2
  -3   5   5 8.52387 1.56969   3
   2  -5  -5 302.300 21.0071   1
   2  -5  -5 315.770 9.06770   2
   2  -5  -5 283.199 21.1076   1
  -2   5   5 298.900 9.46680   3
  -2   5   5 315.616 24.2586   1
  -2   5   5 286.839 8.94617   2
   1  -5  -5 63.3317 2.79166   2
   1  -5  -5 40.4554 8.64856   1
  -1   5   5 59.0567 2.91077   3
  -1   5   5 57.1987 2.63978   2
  -1   5   5 55.6974 10.4578   1
   0  -5  -5 3.74989 0.87063   2
   0  -5  -5 0.10384 5.10849   1
   0  -5  -5 0.22696 4.59214   1
   0   5   5 8.68588 5.91881   1
   0   5   5 5.95475 1.00867   3
   0   5   5 7.13814 1.01948   2
  -1  -5  -5 62.3285 3.00712   2
  -1  -5  -5 67.2044 7.16162   1
  -1  -5  -5 64.9706 7.79210   1
   1   5   5 70.4462 2.70290   2
  -2  -5  -5 87.5672 6.41188   1
  -2  -5  -5 89.0645 3.33766   2
  -2  -5  -5 95.2252 7.02754   1
   2   5   5 96.3553 3.68234   2
  -3  -5  -5 134.271 4.60975   2
   3   5   5 136.919 8.30520   1
   3   5   5 147.343 4.58080   2
   4   5   5 43.7942 5.07337   1
   4   5   5 38.9785 2.06361   2
   5   5   5 62.8848 6.91601   1
   5   5   5 61.2513 2.70318   2
   6   5   5 19.4371 1.84068   2
   6   5   5 16.9434 1.64111   2
   6   5   5 23.6994 5.94880   1
   7   5   5 50.6143 10.3561   1
   7   5   5 42.2434 2.69282   2
   8   5   5 0.55312 0.99031   2
   8   5   5 0.64036 7.74861   1
   9   5   5 3.55497 1.33627   2
   9   5   5 -0.5882 10.3444   1
  10   5   5 1.16662 1.45130   2
 -11  -5  -5 1.98773 1.19830   3
  11   5   5 -0.8523 1.33789   2
  12   5   5 0.85843 1.85890   2
   7  -6  -5 -37.579 55.7339   1
   7  -6  -5 3.52538 1.76535   2
  -7   6   5 -1.4395 1.90729   3
   6  -6  -5 -1.1240 1.13879   2
   6  -6  -5 47.0406 27.1735   1
   6  -6  -5 -10.395 26.9618   1
  -6   6   5 1.68745 1.73756   3
   5  -6  -5 30.3732 20.4992   1
   5  -6  -5 2.73680 21.9217   1
   5  -6  -5 0.38601 1.21288   2
  -5   6   5 0.65118 1.53678   3
  -5   6   5 8.58744 19.6149   1
   4  -6  -5 14.9251 13.7227   1
   4  -6  -5 6.51358 1.43228   2
   4  -6  -5 38.0659 19.6645   1
  -4   6   5 7.98271 17.0812   1
  -4   6   5 9.58427 2.14000   3
   3  -6  -5 2.38477 1.18541   2
   3  -6  -5 20.5455 11.3781   1
   3  -6  -5 -5.6012 11.8932   1
  -3   6   5 -12.129 11.3016   1
  -3   6   5 4.71340 1.26350   2
  -3   6   5 3.61527 1.35152   3
   2  -6  -5 15.3700 9.74816   1
   2  -6  -5 1.86764 10.0678   1
   2  -6  -5 15.7364 1.60510   2
  -2   6   5 24.0927 11.3020   1
  -2   6   5 19.3242 1.77753   2
  -2   6   5 16.1553 2.05165   3
   1  -6  -5 233.793 18.3210   1
   1  -6  -5 265.530 19.7785   1
   1  -6  -5 236.513 7.30864   2
  -1   6   5 228.815 7.24957   2
  -1   6   5 227.465 7.72560   3
  -1   6   5 226.129 20.6750   1
   0  -6  -5 116.775 4.25510   2
   0  -6  -5 116.089 11.9156   1
   0  -6  -5 127.933 13.1380   1
   0   6   5 118.688 4.21237   2
   0   6   5 120.935 14.5954   1
  -1  -6  -5 676.618 25.5806   1
  -1  -6  -5 632.408 25.6020   1
   1   6   5 647.701 17.5697   2
   1   6   5 623.218 27.4927   1
  -2  -6  -5 55.3256 2.57492   2
  -2  -6  -5 61.9889 6.51892   1
  -2  -6  -5 54.0344 5.75657   1
   2   6   5 59.4209 2.55344   2
  -3  -6  -5 208.448 6.42585   2
   3   6   5 207.551 6.36646   2
   4   6   5 387.548 11.2080   2
   4   6   5 406.836 14.5961   1
   5   6   5 93.8836 3.56770   2
   5   6   5 88.3571 6.36106   1
   6   6   5 26.1753 1.94718   2
   6   6   5 23.7546 4.89011   1
   7   6   5 219.607 7.26499   2
   7   6   5 239.080 14.5372   1
   7   6   5 215.602 7.17583   2
   8   6   5 56.6656 3.13781   2
   8   6   5 40.3345 2.78369   2
   8   6   5 45.9948 10.0646   1
   9   6   5 2.34973 1.27045   2
   9   6   5 -13.344 9.07093   1
  10   6   5 29.5216 16.6600   1
  10   6   5 25.8055 2.69188   2
  11   6   5 2.94947 1.53616   2
  12   6   5 16.6024 2.53548   2
   6  -7  -5 -10.789 39.1511   1
   5  -7  -5 16.3786 26.5353   1
   5  -7  -5 3.39634 22.0782   1
   5  -7  -5 4.19696 1.48518   2
  -5   7   5 10.3810 2.22226   3
   4  -7  -5 16.1129 18.6315   1
   4  -7  -5 8.10491 18.3868   1
  -4   7   5 14.8613 20.1967   1
   3  -7  -5 -10.176 12.1051   1
   3  -7  -5 -2.3750 14.6046   1
   3  -7  -5 1.84767 1.07044   2
  -3   7   5 0.83443 1.38758   3
  -3   7   5 23.0913 15.6838   1
   2  -7  -5 234.511 7.47835   2
   2  -7  -5 198.655 19.9616   1
  -2   7   5 205.609 23.4175   1
  -2   7   5 219.057 7.34447   2
  -2   7   5 236.252 8.25925   3
   1  -7  -5 16.2287 9.14356   1
   1  -7  -5 42.7404 12.0182   1
   1  -7  -5 35.3654 2.49625   2
  -1   7   5 36.2963 2.81787   3
  -1   7   5 36.1857 2.33709   2
  -1   7   5 49.3832 12.2225   1
   0  -7  -5 305.932 9.09641   2
   0  -7  -5 301.287 19.6221   1
   0   7   5 306.508 22.5404   1
   0   7   5 297.968 9.02312   2
  -1  -7  -5 33.4253 2.15875   2
  -1  -7  -5 28.1508 6.60091   1
  -1  -7  -5 14.9909 6.47946   1
   1   7   5 30.7635 8.65216   1
   1   7   5 30.6002 2.02346   2
  -2  -7  -5 37.6461 5.10245   1
  -2  -7  -5 30.7170 5.36189   1
  -2  -7  -5 34.1927 2.13178   2
   2   7   5 31.6448 2.00790   2
  -3  -7  -5 168.987 5.50120   2
   3   7   5 162.885 5.37650   2
   4   7   5 62.9245 2.79483   2
   5   7   5 4.97023 1.04383   2
   6   7   5 2.57701 2.50898   1
   6   7   5 1.01566 0.91338   2
   7   7   5 0.46391 0.98565   2
   7   7   5 4.50479 4.33974   1
   8   7   5 61.6385 3.43366   2
   8   7   5 69.7584 9.32860   1
   9   7   5 2.45773 8.75729   1
   9   7   5 0.13237 1.26073   2
  10   7   5 0.99601 1.29999   2
  10   7   5 -2.9012 12.3503   1
  11   7   5 16.9589 2.30344   2
  12   7   5 -2.6265 1.46567   2
   5  -8  -5 0.24873 1.39347   2
  -5   8   5 2.26111 2.17367   3
   4  -8  -5 -11.940 23.6647   1
   4  -8  -5 3.17446 1.50867   2
  -4   8   5 16.0321 28.1579   1
  -4   8   5 3.94065 2.08579   3
   3  -8  -5 0.18068 17.4091   1
   3  -8  -5 12.6403 1.81550   2
  -3   8   5 10.1273 19.5278   1
  -3   8   5 16.5241 2.61022   3
   2  -8  -5 0.91534 11.8567   1
   2  -8  -5 5.76715 14.1278   1
   2  -8  -5 1.82479 1.11680   2
  -2   8   5 -19.891 15.5338   1
  -2   8   5 2.50307 1.48357   3
   1  -8  -5 10.9183 1.59850   2
   1  -8  -5 19.9177 12.2007   1
   1  -8  -5 5.04636 10.0178   1
  -1   8   5 16.4437 12.7917   1
  -1   8   5 7.90166 1.59284   3
  -1   8   5 11.5683 1.59737   2
   0  -8  -5 297.137 22.6512   1
   0  -8  -5 288.524 20.2275   1
   0  -8  -5 304.090 9.10544   2
   0   8   5 286.664 24.2637   1
   0   8   5 293.454 9.02223   2
  -1  -8  -5 -0.1505 6.62929   1
  -1  -8  -5 -0.0611 0.87384   2
  -1  -8  -5 -1.4451 5.86102   1
   1   8   5 5.81582 8.50264   1
   1   8   5 1.10959 0.88714   2
  -2  -8  -5 181.824 10.7728   1
  -2  -8  -5 172.030 5.79797   2
  -2  -8  -5 175.874 14.4659   1
   2   8   5 170.599 5.71682   2
  -3  -8  -5 19.9794 1.92878   2
   3   8   5 17.6047 1.72469   2
   4   8   5 10.3964 1.26757   2
   5   8   5 16.0082 1.59918   2
   6   8   5 -0.2041 0.74518   2
   7   8   5 -0.0271 0.86563   2
   7   8   5 0.59775 0.93874   2
   8   8   5 75.8199 3.73949   2
   8   8   5 67.4371 7.97721   1
   9   8   5 84.5183 4.17956   2
   9   8   5 77.2523 10.1816   1
  10   8   5 131.978 5.56995   2
  10   8   5 119.926 15.0512   1
  11   8   5 0.74921 1.47214   2
  12   8   5 9.13056 22.0816   1
  12   8   5 9.34702 2.10930   2
   4  -9  -5 8.95755 1.76408   2
  -4   9   5 11.8388 2.54719   3
   3  -9  -5 6.72696 22.4567   1
   3  -9  -5 25.5857 2.41174   2
  -3   9   5 20.2085 2.74085   3
  -3   9   5 9.27859 25.3676   1
   2  -9  -5 19.7891 26.0713   1
   2  -9  -5 6.97322 16.5949   1
  -2   9   5 7.72106 21.2828   1
   1  -9  -5 12.0228 1.77572   2
   1  -9  -5 28.4186 14.6883   1
   1  -9  -5 27.8254 14.8245   1
  -1   9   5 32.0713 17.4218   1
  -1   9   5 12.5077 2.38365   3
   0  -9  -5 9.56553 11.4724   1
   0  -9  -5 6.69747 1.39112   2
   0  -9  -5 0.72599 9.73004   1
   0   9   5 7.72272 1.29387   2
   0   9   5 15.0666 13.6683   1
   0   9   5 8.69174 2.02031   3
  -1  -9  -5 122.969 4.60846   2
  -1  -9  -5 97.2891 12.6630   1
  -1  -9  -5 111.851 13.3212   1
   1   9   5 129.805 6.17767   2
   1   9   5 68.0862 25.6034   1
  -2  -9  -5 54.1175 5.96911   1
  -2  -9  -5 56.7362 2.88997   2
  -2  -9  -5 47.0671 6.18527   1
   2   9   5 51.6547 11.5517   1
   2   9   5 45.6558 2.61828   2
  -3  -9  -5 44.7009 2.60860   2
   3   9   5 40.5881 2.39995   2
   4   9   5 10.7512 1.37367   2
   5   9   5 35.3171 2.27891   2
   6   9   5 17.1985 2.52217   2
   7   9   5 1.34570 0.87317   2
   7   9   5 1.67865 1.09414   2
   8   9   5 0.98579 0.99811   2
   9   9   5 18.3089 2.09481   2
  10   9   5 1.07532 1.33805   2
  10   9   5 1.69977 7.90038   1
  10   9   5 -3.5813 7.81493   1
  11   9   5 3.14591 1.68890   2
  11   9   5 -11.062 12.8170   1
  12   9   5 6.01471 2.02342   2
   3 -10  -5 -2.4094 1.24909   2
  -3  10   5 -1.3468 1.70933   3
   2 -10  -5 -46.184 23.5337   1
   2 -10  -5 0.37732 1.26824   2
  -2  10   5 1.34841 1.71230   3
  -2  10   5 10.1072 24.3661   1
   1 -10  -5 3.00092 17.9723   1
  -1  10   5 -8.3426 18.1089   1
  -1  10   5 10.7061 2.43426   3
   0 -10  -5 5.39712 1.28282   2
   0 -10  -5 11.8284 11.6002   1
   0 -10  -5 -10.106 13.1053   1
   0  10   5 -6.7650 16.5257   1
   0  10   5 5.23421 1.80837   3
  -1 -10  -5 25.8916 2.25429   2
  -1 -10  -5 10.4168 8.63599   1
  -1 -10  -5 9.85201 9.64117   1
   1  10   5 22.0715 15.0218   1
   1  10   5 20.5078 2.18715   2
  -2 -10  -5 -3.3593 3.39043   1
  -2 -10  -5 0.78788 1.03038   2
  -2 -10  -5 1.10319 4.13809   1
   2  10   5 0.14382 0.91268   2
  -3 -10  -5 3.41105 1.20715   2
   5  10   5 -2.0686 0.75384   2
   6  10   5 1.54020 0.94799   2
   7  10   5 32.0184 2.46396   2
   8  10   5 1.14895 1.09737   2
   9  10   5 4.79203 2.51923   2
  10  10   5 27.8656 2.61600   2
  11  10   5 2.62617 1.60863   2
  12  10   5 23.6907 4.12415   2
   2 -11  -5 34.7159 3.03123   2
  -2  11   5 37.6372 4.09996   3
   1 -11  -5 109.838 4.83157   2
   1 -11  -5 74.7350 24.6336   1
  -1  11   5 114.484 6.16969   3
   0 -11  -5 0.86896 1.06861   2
   0  11   5 -4.0314 26.0842   1
   0  11   5 1.79547 1.80694   3
  -1 -11  -5 10.2758 1.61580   2
  -1 -11  -5 14.7555 11.1544   1
  -1 -11  -5 9.21824 9.67698   1
  -2 -11  -5 -1.4536 0.86186   2
  -3 -11  -5 48.4623 2.84515   2
   4  11   5 1.78580 0.98292   2
   7  11   5 0.67943 1.01319   2
   8  11   5 16.6182 2.00083   2
   9  11   5 -1.2721 1.02372   2
  10  11   5 1.54547 1.37191   2
  11  11   5 -0.8740 1.39025   2
   0 -12  -5 61.0458 22.3809   1
   0 -12  -5 45.4069 3.08558   2
   0  12   5 38.8731 4.19097   3
  -1 -12  -5 67.9077 5.36029   2
   1  12   5 69.3446 4.85438   3
  -2 -12  -5 13.3397 1.83131   2
   7  12   5 5.86501 1.46762   2
   8  12   5 1.47182 1.29189   2
   9  12   5 6.26908 1.46926   2
  10  12   5 6.67351 1.72630   2
  -2 -13  -5 14.0025 1.82135   2
   7  13   5 15.3698 1.90826   2
   8  13   5 -0.6726 1.12547   2
   9  13   5 2.85897 1.59676   2
   6  13  -6 -15.677 24.7237   1
   5  13  -6 2.84928 26.1530   1
   8  12  -6 16.2234 22.2691   1
   7  12  -6 -32.204 19.2910   1
   6  12  -6 -13.640 18.1702   1
   5  12  -6 11.8521 19.2089   1
   4  12  -6 9.31931 20.1093   1
   3  12  -6 6.14775 21.7332   1
   2  12  -6 37.8273 25.2085   1
  -2 -12   6 7.04689 13.0992   1
  -1 -12   6 -14.957 18.1614   1
   0 -12   6 59.2267 36.7080   1
  10  11  -6 -1.1826 1.14553   2
   9  11  -6 36.8148 2.39803   2
   9  11  -6 28.4298 22.9778   1
   8  11  -6 21.4326 1.86592   2
   8  11  -6 13.8461 18.8870   1
   6  11  -6 8.59730 15.3918   1
   5  11  -6 -1.1647 15.6318   1
   4  11  -6 -7.8948 15.1218   1
   3  11  -6 20.9446 16.0035   1
  -3 -11   6 18.5009 8.61475   1
   2  11  -6 -25.819 16.4087   1
  -2 -11   6 1.18485 13.1582   1
   1  11  -6 6.11683 20.8942   1
  -1 -11   6 24.4120 15.5133   1
   0  11  -6 64.0365 25.4086   1
   0 -11   6 68.7404 21.2466   1
  -1  11  -6 -24.519 29.5315   1
   1 -11   6 42.5060 24.3669   1
  10  10  -6 4.76340 25.3049   1
  10  10  -6 -3.8893 1.85486   2
   9  10  -6 -0.6794 0.95086   2
   8  10  -6 22.8885 1.88758   2
   8  10  -6 32.2363 2.06376   2
   8  10  -6 20.7784 16.8918   1
   7  10  -6 4.45964 13.7124   1
   7  10  -6 1.33065 0.74785   2
   6  10  -6 -5.0546 12.4123   1
   5  10  -6 91.7412 15.6223   1
   4  10  -6 4.00562 12.0009   1
   3  10  -6 19.2410 11.9600   1
  -3 -10   6 7.33559 8.02364   1
   2  10  -6 18.6640 14.1191   1
  -2 -10   6 13.1456 10.4006   1
   1  10  -6 -9.8731 14.7160   1
  -1 -10   6 17.5277 12.5935   1
   0  10  -6 -3.9635 17.6930   1
   0 -10   6 1.74761 13.3759   1
  -1  10  -6 4.71061 21.3206   1
   1 -10   6 42.1446 28.3542   1
  -2  10  -6 -15.331 30.8210   1
   2 -10   6 33.7385 24.2185   1
  -3  10  -6 38.6517 37.7657   1
   3 -10   6 -22.376 29.5640   1
  -4  10  -6 24.5356 3.28824   3
   4 -10   6 15.9672 1.80887   2
  11   9  -6 1.33967 1.43881   2
  10   9  -6 1.70715 1.41443   2
  10   9  -6 -34.183 22.9045   1
   9   9  -6 26.5464 18.4150   1
   8   9  -6 1.11447 0.97783   2
   8   9  -6 5.62817 13.9691   1
   8   9  -6 23.1814 16.0041   1
   7   9  -6 46.1788 2.34698   2
   7   9  -6 42.4347 13.1848   1
   7   9  -6 43.7055 2.18465   2
   6   9  -6 -2.6656 10.7001   1
   5   9  -6 32.1924 11.2407   1
   4   9  -6 29.2640 11.8967   1
  -4  -9   6 46.3428 7.50667   1
  -3  -9   6 49.3916 9.26208   1
   2   9  -6 56.1955 13.6163   1
  -2  -9   6 88.1879 12.4790   1
   1   9  -6 83.3569 16.2060   1
  -1  -9   6 60.4268 12.6260   1
   0   9  -6 20.8861 13.9399   1
  -1   9  -6 28.4768 15.3091   1
   1  -9   6 34.2264 14.5946   1
  -2   9  -6 -10.792 20.3016   1
   2  -9   6 -6.3673 16.6004   1
  -3   9  -6 -22.859 25.7083   1
   3  -9   6 11.3062 20.5973   1
   3  -9   6 15.6770 1.33236   2
  -4   9  -6 8.89707 34.1804   1
  -4   9  -6 -0.8536 1.48303   3
   4  -9   6 5.54722 28.7325   1
   4  -9   6 3.09915 0.95820   2
  -5   9  -6 10.0255 2.54749   3
   5  -9   6 7.41090 1.33854   2
  11   8  -6 0.79475 1.40820   2
  10   8  -6 8.24612 22.0634   1
   9   8  -6 38.5939 2.69714   2
   9   8  -6 48.2101 17.2761   1
   8   8  -6 2.66301 1.04557   2
   8   8  -6 23.4916 17.1277   1
   8   8  -6 -2.8532 12.7354   1
   7   8  -6 17.7853 11.9783   1
   7   8  -6 16.7468 1.54853   2
   6   8  -6 130.875 16.5791   1
   6   8  -6 162.757 5.04134   2
   5   8  -6 648.981 17.0010   2
   5   8  -6 627.921 16.9746   2
   5   8  -6 661.359 31.5921   1
   4   8  -6 29.4839 16.0455   1
   3   8  -6 139.885 16.8315   1
  -3  -8   6 159.814 14.1353   1
   2   8  -6 -4.5007 7.86760   1
  -2  -8   6 12.2758 7.59625   1
   1   8  -6 122.497 17.3274   1
   0   8  -6 19.6031 10.3462   1
   0  -8   6 19.2652 10.5340   1
  -1   8  -6 44.7567 14.7236   1
   1  -8   6 59.3138 13.2882   1
  -2   8  -6 13.5590 14.2358   1
   2  -8   6 20.2998 15.6692   1
  -3   8  -6 -4.3845 17.2132   1
   3  -8   6 0.50888 0.70030   2
   3  -8   6 2.36880 16.4131   1
  -4   8  -6 5.70228 22.4416   1
  -4   8  -6 1.39117 1.41622   3
   4  -8   6 1.41865 0.90513   2
   4  -8   6 -7.9097 32.5467   1
  -5   8  -6 47.4100 3.75215   3
  -5   8  -6 59.4741 35.0602   1
   5  -8   6 49.1062 2.64406   2
   5  -8   6 76.3456 31.8241   1
  -6   8  -6 37.7134 43.8770   1
  -6   8  -6 17.6444 2.72359   3
   6  -8   6 16.5592 1.76896   2
  11   7  -6 6.98524 1.85387   2
 -11  -7   6 6.03335 2.59941   3
  10   7  -6 17.4826 20.9060   1
  10   7  -6 3.41053 1.41566   2
 -10  -7   6 0.38468 1.86385   3
   9   7  -6 -15.388 16.0229   1
   9   7  -6 -17.752 15.1216   1
   9   7  -6 0.41296 1.17365   2
  -9  -7   6 0.67378 1.70263   3
   8   7  -6 -20.820 12.1405   1
   8   7  -6 -8.7566 12.4933   1
   7   7  -6 -3.2889 12.1186   1
   7   7  -6 4.18842 1.11589   2
   6   7  -6 6.58165 1.06048   2
   5   7  -6 57.2959 11.2214   1
   5   7  -6 53.8582 2.21899   2
   4   7  -6 1.06902 0.52216   2
   4   7  -6 1.85437 0.49926   2
   4   7  -6 -8.6881 6.49741   1
  -4  -7   6 5.57071 5.44841   1
   3   7  -6 108.277 13.2438   1
  -3  -7   6 93.1160 11.0855   1
   2   7  -6 234.453 18.7581   1
   1   7  -6 67.5704 11.8416   1
  -1  -7   6 44.9117 9.54594   1
   0   7  -6 69.4105 12.6827   1
   0  -7   6 76.4964 12.9248   1
  -1   7  -6 409.783 27.8973   1
  -2   7  -6 79.4123 17.0814   1
   2  -7   6 67.7783 2.36403   2
   2  -7   6 80.8563 16.0884   1
  -3   7  -6 6.67957 13.6511   1
   3  -7   6 25.1580 13.2751   1
   3  -7   6 20.9577 1.49126   2
  -4   7  -6 18.9049 17.2700   1
   4  -7   6 -0.8524 0.68041   2
   4  -7   6 -1.6618 17.4925   1
  -5   7  -6 34.4902 3.01046   3
  -5   7  -6 1.76289 25.0981   1
   5  -7   6 36.2630 2.33868   2
   5  -7   6 25.7171 21.0763   1
  -6   7  -6 34.2776 33.3504   1
  -6   7  -6 28.8663 3.33100   3
   6  -7   6 33.2850 30.0321   1
   6  -7   6 23.0148 2.21941   2
  -7   7  -6 7.49741 56.3949   1
  11   6  -6 23.4992 2.67304   2
 -11  -6   6 22.2148 3.58570   3
  10   6  -6 -2.3460 21.3938   1
  10   6  -6 0.61583 1.33076   2
 -10  -6   6 1.99504 1.88968   3
   9   6  -6 70.7815 3.72859   2
   9   6  -6 57.1187 20.0132   1
   9   6  -6 66.6068 18.2262   1
  -9  -6   6 69.5937 4.43889   3
   8   6  -6 3.65775 12.3765   1
   8   6  -6 0.04543 13.0704   1
  -8  -6   6 0.12378 1.44632   3
   7   6  -6 19.4882 11.1984   1
   7   6  -6 -1.2540 9.75406   1
   7   6  -6 0.78115 0.98788   2
  -7  -6   6 2.08771 1.30204   3
   6   6  -6 0.11152 7.98972   1
   6   6  -6 1.01673 1.00300   2
  -6  -6   6 1.51977 1.34400   3
   5   6  -6 4.52255 6.67455   1
   5   6  -6 4.22383 0.87837   2
   4   6  -6 7.31535 6.94190   1
  -4  -6   6 8.40235 8.37044   1
   3   6  -6 669.427 29.6340   1
  -3  -6   6 632.356 35.6927   1
   2   6  -6 158.994 14.7202   1
  -2  -6   6 154.615 13.0730   1
   1   6  -6 227.414 17.6145   1
  -1  -6   6 197.699 15.6537   1
   0   6  -6 147.762 16.7002   1
  -1   6  -6 947.648 41.7815   1
   1  -6   6 886.905 39.1254   1
  -2   6  -6 147.101 19.9042   1
   2  -6   6 171.390 19.4565   1
   2  -6   6 137.807 4.19046   2
  -3   6  -6 -2.7461 12.5165   1
   3  -6   6 -0.8398 10.2398   1
   3  -6   6 3.75276 0.83667   2
  -4   6  -6 34.5863 15.6794   1
   4  -6   6 49.0972 2.39288   2
   4  -6   6 50.2698 15.3513   1
  -5   6  -6 44.7820 3.15429   3
  -5   6  -6 44.2617 19.1262   1
   5  -6   6 51.7845 2.69387   2
   5  -6   6 57.7398 19.4917   1
  -6   6  -6 14.5765 22.6292   1
  -6   6  -6 5.30929 1.79430   3
   6  -6   6 7.48378 22.8501   1
   6  -6   6 6.29348 1.32807   2
  -7   6  -6 46.6505 3.65801   3
  -7   6  -6 20.1231 36.6417   1
   7  -6   6 49.0350 54.9827   1
  -8   6  -6 -8.6077 82.3735   1
  11   5  -6 22.7036 2.82057   2
 -11  -5   6 24.6052 3.61591   3
  10   5  -6 11.4996 1.91733   2
  10   5  -6 4.48311 22.5934   1
 -10  -5   6 5.90554 2.07066   3
   9   5  -6 13.4371 15.0182   1
   9   5  -6 5.50542 32.3957   1
   9   5  -6 15.5894 1.96480   2
  -9  -5   6 15.1240 2.62405   3
   8   5  -6 -0.2962 12.3252   1
   8   5  -6 16.7976 13.5536   1
   8   5  -6 8.38958 1.56545   2
  -8  -5   6 5.47136 1.85540   3
   7   5  -6 -6.9508 9.21691   1
   7   5  -6 -1.8772 0.84860   2
   7   5  -6 4.68183 11.2442   1
  -7  -5   6 -0.7681 0.86036   2
  -7  -5   6 2.24991 1.37259   3
   6   5  -6 16.8607 8.09009   1
   6   5  -6 11.2688 1.36833   2
  -6  -5   6 12.6155 1.41013   2
  -6  -5   6 14.2918 2.14795   3
   5   5  -6 3.96127 0.91859   2
   5   5  -6 6.85598 6.87643   1
  -5  -5   6 2.99056 0.94471   2
  -5  -5   6 5.24525 1.39746   3
   4   5  -6 28.7447 1.57111   2
   4   5  -6 20.6212 7.11222   1
  -4  -5   6 25.5365 6.74242   1
  -4  -5   6 30.4983 2.19554   3
  -4  -5   6 31.0901 1.52287   2
   3   5  -6 62.7682 2.09503   2
   3   5  -6 67.4911 9.93851   1
  -3  -5   6 71.4197 9.29991   1
   2   5  -6 4.51057 5.52738   1
  -2  -5   6 3.26057 4.81180   1
   1   5  -6 129.046 13.1688   1
  -1  -5   6 132.519 12.0365   1
   0   5  -6 251.833 18.4254   1
  -1   5  -6 27.6991 8.16820   1
   1  -5   6 33.3526 8.53601   1
  -2   5  -6 52.5454 11.5490   1
   2  -5   6 51.1723 10.8488   1
   2  -5   6 57.0266 2.05276   2
  -3   5  -6 566.031 32.5801   1
   3  -5   6 546.220 14.8710   2
  -4   5  -6 5.49954 10.7971   1
   4  -5   6 -7.3342 10.3457   1
   4  -5   6 -0.1408 0.86275   2
  -5   5  -6 8.80240 1.69423   3
  -5   5  -6 -5.8652 13.6348   1
   5  -5   6 8.52297 1.35359   2
   5  -5   6 12.6751 13.5900   1
  -6   5  -6 28.1255 32.4955   1
  -6   5  -6 22.2078 2.48654   3
   6  -5   6 10.0595 18.6373   1
   6  -5   6 23.7710 2.06970   2
  -7   5  -6 -20.528 26.7766   1
   7  -5   6 -25.840 45.3658   1
   8  -5   6 23.9859 34.6489   1
  11   4  -6 2.24970 1.59425   2
 -11  -4   6 1.48456 2.15202   3
  10   4  -6 28.0501 2.89178   2
  10   4  -6 52.1418 24.7281   1
 -10  -4   6 31.4999 3.88360   3
   9   4  -6 11.3886 17.1654   1
   9   4  -6 40.7140 21.9901   1
   8   4  -6 16.4576 1.81510   2
   8   4  -6 13.2745 13.4124   1
   8   4  -6 28.8502 13.5535   1
  -8  -4   6 21.6687 2.89593   3
   7   4  -6 30.1837 11.8523   1
   7   4  -6 22.5985 11.8375   1
   7   4  -6 33.2416 2.49172   2
  -7  -4   6 33.8719 2.64568   2
   6   4  -6 40.2810 2.41890   2
   6   4  -6 27.3971 10.4301   1
  -6  -4   6 41.1332 2.31121   2
  -6  -4   6 39.0572 2.82175   3
   5   4  -6 149.179 14.3823   1
   5   4  -6 134.104 4.61983   2
  -5  -4   6 135.453 5.16269   3
  -5  -4   6 138.799 4.54947   2
   4   4  -6 77.2223 10.6713   1
   4   4  -6 82.2708 2.99730   2
  -4  -4   6 88.0863 3.61962   3
  -4  -4   6 87.3782 3.01733   2
   3   4  -6 106.959 3.25341   2
   3   4  -6 116.977 11.6998   1
  -3  -4   6 106.286 3.25413   2
  -3  -4   6 94.4321 10.0248   1
  -3  -4   6 99.8926 3.90095   3
   2   4  -6 0.14388 4.91030   1
   2   4  -6 0.50435 0.36342   2
  -2  -4   6 4.72640 3.91898   1
  -2  -4   6 -0.1446 0.32337   2
   1   4  -6 93.0889 10.1248   1
   0   4  -6 15.0994 6.27667   1
   0  -4   6 21.1737 5.76324   1
  -1   4  -6 63.0634 9.81105   1
   1  -4   6 83.1121 10.9686   1
   1  -4   6 65.2025 1.99079   2
  -2   4  -6 2.08643 6.50663   1
   2  -4   6 4.12029 6.18121   1
  -3   4  -6 48.8375 11.4693   1
   3  -4   6 40.1345 10.1490   1
   3  -4   6 46.3421 2.02873   2
  -4   4  -6 14.8628 10.2258   1
   4  -4   6 2.35895 0.91579   2
   4  -4   6 -2.4208 9.13793   1
  -5   4  -6 38.5884 13.7032   1
  -5   4  -6 31.9959 2.27170   3
   5  -4   6 11.4762 12.1211   1
   5  -4   6 28.9307 2.09561   2
  -6   4  -6 4.12546 1.35720   3
  -6   4  -6 -16.615 13.5885   1
   6  -4   6 5.85051 1.30849   2
   6  -4   6 0.83092 16.4578   1
  -7   4  -6 68.9615 3.84615   3
  -7   4  -6 47.2862 21.2802   1
   7  -4   6 76.7692 3.68194   2
   7  -4   6 54.1827 26.3334   1
  -8   4  -6 -32.186 25.7402   1
  -8   4  -6 1.96515 1.53571   3
   8  -4   6 -14.620 29.2308   1
   8  -4   6 0.96368 1.26822   2
  -9   4  -6 38.1439 3.31494   3
   9  -4   6 39.0290 3.30936   2
   9  -4   6 69.7337 40.6737   1
  11   3  -6 -2.9375 1.53678   2
 -11  -3   6 0.34921 1.93831   3
  10   3  -6 -30.777 44.7175   1
  10   3  -6 5.70220 1.78816   2
 -10  -3   6 10.8797 2.46793   3
   9   3  -6 -2.4524 20.4448   1
   9   3  -6 9.32310 1.96599   2
   9   3  -6 -0.8430 19.0336   1
   8   3  -6 44.9896 15.7339   1
   8   3  -6 7.77939 12.8660   1
   8   3  -6 31.0614 2.69294   2
  -8  -3   6 32.4364 3.07627   3
   7   3  -6 6.50376 10.6949   1
   7   3  -6 -8.1237 9.13939   1
   7   3  -6 0.58093 1.00295   2
  -7  -3   6 -0.5435 0.82647   2
   6   3  -6 11.5374 9.08159   1
   6   3  -6 14.6683 1.60659   2
   6   3  -6 4.33859 9.16684   1
  -6  -3   6 17.6259 1.64028   2
  -6  -3   6 17.7531 2.02113   3
   5   3  -6 49.2431 2.87008   2
   5   3  -6 42.7639 10.9035   1
   5   3  -6 67.0486 11.3546   1
  -5  -3   6 47.1279 2.77478   3
  -5  -3   6 52.0203 2.41974   2
   4   3  -6 17.7979 1.44465   2
   4   3  -6 4.72572 5.55386   1
  -4  -3   6 15.1706 1.60604   3
  -4  -3   6 16.2750 1.36993   2
   3   3  -6 15.6885 5.54086   1
   3   3  -6 19.5358 1.25712   2
  -3  -3   6 14.2134 1.46475   3
  -3  -3   6 16.0603 1.14347   2
   2   3  -6 380.812 19.6261   1
   2   3  -6 391.195 10.2391   2
  -2  -3   6 380.248 10.2151   2
  -2  -3   6 379.615 10.8486   3
   1   3  -6 0.05464 0.31916   2
   1   3  -6 0.71479 4.46107   1
  -1  -3   6 -0.3468 0.33589   2
  -1  -3   6 -3.3119 3.32827   1
   0   3  -6 1296.45 44.3741   1
   0  -3   6 1286.98 43.8518   1
  -1   3  -6 553.459 25.7765   1
   1  -3   6 561.361 14.8790   2
   1  -3   6 590.838 25.8177   1
   1  -3   6 580.208 14.8952   2
  -2   3  -6 213.379 16.6922   1
   2  -3   6 202.332 5.87248   2
   2  -3   6 241.688 16.4508   1
  -3   3  -6 216.837 17.6733   1
   3  -3   6 219.024 6.28979   2
   3  -3   6 210.965 17.3009   1
  -4   3  -6 14.5590 9.01130   1
   4  -3   6 14.2452 9.08271   1
   4  -3   6 16.6689 1.68740   2
  -5   3  -6 52.0064 2.61026   3
  -5   3  -6 46.7495 12.6397   1
   5  -3   6 52.9349 2.61128   2
   5  -3   6 29.0247 12.1101   1
  -6   3  -6 23.5836 14.5623   1
  -6   3  -6 18.3547 1.87401   3
   6  -3   6 19.6813 15.6151   1
   6  -3   6 21.4278 2.11634   2
  -7   3  -6 16.5386 18.0691   1
  -7   3  -6 30.6960 2.44259   3
   7  -3   6 24.3076 2.36814   2
   7  -3   6 31.1203 18.8370   1
  -8   3  -6 24.0289 21.4558   1
  -8   3  -6 12.5582 2.03745   3
   8  -3   6 12.4454 1.88701   2
   8  -3   6 -4.2172 22.4180   1
  -9   3  -6 -38.511 32.3638   1
  -9   3  -6 1.58424 1.49129   3
   9  -3   6 -1.3988 30.4000   1
   9  -3   6 0.24771 1.30586   2
 -10   3  -6 0.11513 1.50476   3
  10  -3   6 2.38267 1.69062   2
  11   2  -6 2.16067 1.75545   2
 -11  -2   6 -3.3378 1.58618   3
  10   2  -6 1.11861 1.35101   2
  10   2  -6 3.23907 28.7590   1
 -10  -2   6 1.01261 1.78893   3
   9   2  -6 10.5320 22.5692   1
   9   2  -6 9.31476 20.1371   1
   8   2  -6 21.4157 2.22091   2
   8   2  -6 7.32612 15.9555   1
   8   2  -6 37.0443 26.6179   1
  -8  -2   6 30.6778 3.00401   3
   7   2  -6 3.19664 1.20877   2
   7   2  -6 0.76360 12.8680   1
  -7  -2   6 2.78890 1.10025   2
  -7  -2   6 2.26547 1.53274   3
   6   2  -6 3.11688 7.77148   1
   6   2  -6 5.25402 1.25335   2
   6   2  -6 14.6021 10.2994   1
  -6  -2   6 6.88857 1.52392   3
  -6  -2   6 5.66724 1.20436   2
   5   2  -6 20.0519 8.81517   1
   5   2  -6 13.3944 7.67627   1
   5   2  -6 20.1086 1.83473   2
  -5  -2   6 17.8400 1.54228   2
  -5  -2   6 19.1035 1.89053   3
   4   2  -6 27.1076 7.95984   1
  -4  -2   6 33.7950 1.83335   2
  -4  -2   6 31.0469 2.05181   3
   3   2  -6 0.23374 4.24345   1
   3   2  -6 0.11798 0.56699   2
  -3  -2   6 0.99608 0.57121   2
  -3  -2   6 0.01328 0.72476   3
  -3  -2   6 5.13173 4.29040   1
   2   2  -6 17.1507 1.20194   2
   2   2  -6 12.3565 5.27858   1
  -2  -2   6 17.0817 1.39597   3
  -2  -2   6 25.3087 6.07034   1
  -2  -2   6 18.0128 1.13931   2
   1   2  -6 523.289 22.7725   1
   1   2  -6 518.423 13.7991   2
  -1  -2   6 539.112 13.8031   2
  -1  -2   6 528.204 22.4595   1
  -1  -2   6 517.733 14.2308   3
   0   2  -6 65.6230 8.65155   1
   0   2  -6 74.4246 2.29320   2
   0  -2   6 76.6430 2.28010   2
   0  -2   6 80.6073 8.73000   1
  -1   2  -6 2296.61 71.8499   1
   1  -2   6 2373.09 60.9454   2
   1  -2   6 2453.36 72.2113   1
  -2   2  -6 118.531 12.2382   1
   2  -2   6 122.654 12.1121   1
   2  -2   6 124.627 3.71309   2
  -3   2  -6 16.3281 7.10015   1
   3  -2   6 17.1308 1.27780   2
   3  -2   6 13.9331 6.40460   1
  -4   2  -6 1.09709 6.89289   1
   4  -2   6 -0.0653 6.81860   1
  -5   2  -6 31.5614 1.88917   3
  -5   2  -6 11.1356 9.05397   1
   5  -2   6 33.7333 2.12454   2
   5  -2   6 23.5294 10.2415   1
  -6   2  -6 3.31897 1.09488   3
  -6   2  -6 -4.8441 9.37047   1
   6  -2   6 2.33023 1.09496   2
   6  -2   6 -0.0792 10.5011   1
  -7   2  -6 -18.831 11.7699   1
  -7   2  -6 -0.3341 0.88944   3
   7  -2   6 -0.4036 0.95798   2
   7  -2   6 -4.4676 13.1593   1
  -8   2  -6 38.3827 19.5321   1
  -8   2  -6 1.00917 1.17022   3
   8  -2   6 3.74939 1.39267   2
   8  -2   6 3.67657 20.9765   1
  -9   2  -6 29.3941 29.0961   1
  -9   2  -6 1.20968 1.23678   3
   9  -2   6 -24.224 25.6631   1
   9  -2   6 1.31423 1.35323   2
  10  -2   6 62.1140 53.4383   1
  10   1  -6 -18.820 28.6074   1
  10   1  -6 -0.7516 1.58788   2
 -10  -1   6 3.43910 2.02843   3
   9   1  -6 36.1384 22.6050   1
   9   1  -6 9.94826 2.01995   2
   9   1  -6 -31.729 22.3167   1
  -9  -1   6 0.09538 1.55682   3
   8   1  -6 33.4262 17.7310   1
   8   1  -6 6.36842 14.4777   1
   8   1  -6 7.92689 1.84546   2
  -8  -1   6 6.06525 1.93045   3
   7   1  -6 10.2161 11.3555   1
   7   1  -6 4.38689 12.4456   1
   7   1  -6 3.33369 1.27425   2
  -7  -1   6 2.67842 1.34421   3
   6   1  -6 10.3494 11.3639   1
   6   1  -6 12.4966 1.48749   2
  -6  -1   6 16.1954 2.14560   3
  -6  -1   6 14.6691 1.88722   2
   5   1  -6 21.1754 1.94522   2
   5   1  -6 14.6387 8.69012   1
   5   1  -6 20.2221 8.67264   1
  -5  -1   6 19.0591 1.74528   2
  -5  -1   6 16.0700 1.82387   3
   4   1  -6 0.50776 0.71153   2
   4   1  -6 1.49475 5.72657   1
   4   1  -6 -3.4256 5.86951   1
  -4  -1   6 -0.4360 0.61526   2
  -4  -1   6 -0.3957 0.78568   3
   3   1  -6 144.002 4.59801   2
   3   1  -6 172.418 13.6908   1
  -3  -1   6 139.219 4.84963   3
  -3  -1   6 147.556 4.58198   2
   2   1  -6 60.4347 8.43395   1
   2   1  -6 76.0145 2.69403   2
  -2  -1   6 74.7603 2.88859   3
  -2  -1   6 78.2506 2.65778   2
  -2  -1   6 71.9809 8.91234   1
   1   1  -6 284.816 7.75534   2
   1   1  -6 286.464 15.5464   1
  -1  -1   6 281.826 15.7742   1
  -1  -1   6 284.812 7.98914   3
  -1  -1   6 279.310 7.72604   2
   0   1  -6 1621.02 49.6000   1
   0   1  -6 1512.35 39.8304   2
   0  -1   6 1547.29 39.9903   3
   0  -1   6 1536.08 48.8191   1
   0  -1   6 1517.14 39.8093   2
   1  -1   6 605.158 15.6932   2
   1  -1   6 585.473 24.2447   1
  -2   1  -6 1049.44 51.4761   1
   2  -1   6 1192.36 42.0787   1
   2  -1   6 1194.17 30.1182   2
  -3   1  -6 102.364 12.0556   1
   3  -1   6 124.899 11.6711   1
   3  -1   6 111.571 3.63040   2
  -4   1  -6 60.7051 10.2958   1
  -4   1  -6 63.8375 2.27772   3
   4  -1   6 64.6271 10.7378   1
   4  -1   6 59.1192 2.53786   2
  -5   1  -6 0.69487 0.78446   3
  -5   1  -6 -0.4504 6.84495   1
   5  -1   6 -10.634 6.51777   1
   5  -1   6 0.48473 0.95077   2
  -6   1  -6 57.1759 13.1076   1
  -6   1  -6 44.2092 2.22298   3
   6  -1   6 38.4991 2.54343   2
   6  -1   6 34.3604 11.8924   1
  -7   1  -6 87.9880 3.60857   3
  -7   1  -6 115.071 18.0593   1
   7  -1   6 92.7884 4.01192   2
   7  -1   6 77.2890 16.8823   1
  -8   1  -6 21.8327 16.9828   1
  -8   1  -6 19.9408 1.91667   3
   8  -1   6 14.6085 1.95825   2
   8  -1   6 32.8458 16.1309   1
  -9   1  -6 -31.440 18.6092   1
  -9   1  -6 -1.7034 1.00638   3
   9  -1   6 -2.2507 22.8951   1
   9  -1   6 -1.6027 1.17263   2
 -10   1  -6 0.06458 1.25673   3
  10  -1   6 -0.4112 1.34162   2
  10  -1   6 0.38936 31.0045   1
 -11   1  -6 21.8530 2.53708   3
  11  -1   6 24.2310 4.30199   2
  10   0  -6 23.2090 35.7025   1
   9   0  -6 7.96536 24.9920   1
   9   0  -6 10.4907 26.6985   1
  -9   0   6 1.66797 1.67707   3
   8   0  -6 7.39838 18.4076   1
   8   0  -6 14.2770 2.14454   2
   8   0  -6 -19.301 17.1054   1
  -8   0   6 18.6600 2.73115   3
   7   0  -6 4.48969 12.3899   1
   7   0  -6 11.9560 15.1715   1
  -7   0   6 1.45737 1.55531   3
   6   0  -6 3.36265 9.80142   1
   6   0  -6 4.01420 1.24969   2
   6   0  -6 -2.7559 10.3574   1
  -6   0   6 6.90677 1.62576   3
  -6   0   6 4.63579 1.15832   2
   5   0  -6 34.6284 9.89064   1
   5   0  -6 26.7124 2.20551   2
   5   0  -6 10.0918 9.60172   1
  -5   0   6 27.8184 2.24940   3
  -5   0   6 29.7812 2.09865   2
   4   0  -6 181.983 17.8066   1
   4   0  -6 205.645 6.21983   2
   4   0  -6 179.570 16.3565   1
  -4   0   6 202.372 6.53476   3
  -4   0   6 185.716 6.10048   2
   3   0  -6 240.619 16.4898   1
   3   0  -6 255.287 17.8984   1
  -3   0   6 217.514 6.99584   3
  -3   0   6 225.330 6.73771   2
   2   0  -6 315.516 8.91189   2
   2   0  -6 301.249 20.9109   1
  -2   0   6 335.910 18.5310   1
   1   0  -6 18.3407 1.27516   2
  -1   0   6 7.94247 4.74634   1
  -1   0   6 17.4670 1.23339   2
  -1   0   6 18.0825 1.26526   3
   0   0  -6 8.90804 0.84026   2
   0   0   6 3.15821 3.92663   1
   0   0   6 8.63454 0.83474   3
   0   0   6 8.04085 0.79866   2
  -1   0  -6 40.2169 6.45628   1
  -1   0  -6 46.8109 1.78052   2
   1   0   6 39.3496 6.64941   1
   1   0   6 44.6753 1.73614   2
   1   0   6 43.8468 1.51839   3
  -2   0  -6 606.641 24.5238   1
   2   0   6 595.567 24.2323   1
   2   0   6 595.747 15.8704   2
  -3   0  -6 150.890 12.1588   1
   3   0   6 163.408 13.2037   1
  -4   0  -6 -7.8229 4.34602   1
   4   0   6 4.04450 5.22586   1
  -5   0  -6 3.36093 6.40270   1
  -5   0  -6 13.4146 1.02353   3
   5   0   6 15.1764 7.55302   1
  -6   0  -6 30.3286 10.2299   1
   6   0   6 25.3954 10.0322   1
   6   0   6 30.4986 2.28981   2
  -7   0  -6 55.4920 19.6552   1
  -7   0  -6 56.8539 2.52807   3
   7   0   6 34.0407 12.1675   1
   7   0   6 50.5062 3.00707   2
  -8   0  -6 48.3383 14.1545   1
  -8   0  -6 46.4205 2.56709   3
   8   0   6 47.7225 15.7906   1
   8   0   6 50.8426 3.20214   2
  -9   0  -6 4.20693 1.23353   3
  -9   0  -6 -19.323 17.1166   1
   9   0   6 4.30908 1.77547   2
   9   0   6 8.34159 17.4352   1
 -10   0  -6 2.18728 37.7523   1
 -10   0  -6 -0.7899 1.09704   3
  10   0   6 -5.2623 28.0303   1
  10   0   6 -0.5522 1.24065   2
 -11   0  -6 3.55770 1.47625   3
  11   0   6 6.69618 1.86030   2
  10  -1  -6 5.37274 1.54209   2
 -10   1   6 7.81606 2.44375   3
   9  -1  -6 6.79385 2.10501   2
   9  -1  -6 9.11584 35.0924   1
   9  -1  -6 57.1833 27.3686   1
  -9   1   6 9.83356 2.38710   3
   8  -1  -6 11.0552 22.5647   1
   8  -1  -6 3.10893 20.6432   1
   8  -1  -6 1.42838 1.44059   2
  -8   1   6 3.59440 1.87550   3
   7  -1  -6 24.8422 15.9002   1
   7  -1  -6 31.2442 28.4964   1
   6  -1  -6 20.5629 13.5593   1
   6  -1  -6 9.02954 1.50756   2
   6  -1  -6 6.62471 10.9662   1
  -6   1   6 14.1742 2.16614   3
   5  -1  -6 5.24270 8.94893   1
   5  -1  -6 4.22865 1.23452   2
   5  -1  -6 5.70773 9.45841   1
  -5   1   6 8.80558 1.77249   3
  -5   1   6 4.57602 1.12523   2
   4  -1  -6 79.7544 13.6470   1
   4  -1  -6 79.7303 3.39934   2
   4  -1  -6 67.3068 12.5555   1
  -4   1   6 78.2197 3.52800   3
  -4   1   6 81.0887 3.31456   2
   3  -1  -6 11.3451 6.16831   1
   3  -1  -6 2.43810 5.88471   1
  -3   1   6 1.49264 0.77520   3
  -3   1   6 3.33157 0.80672   2
   2  -1  -6 1201.40 44.3155   1
   2  -1  -6 1183.39 32.9129   2
   2  -1  -6 1258.90 44.8277   1
  -2   1   6 1217.43 33.1566   3
  -2   1   6 1412.84 33.7821   2
   1  -1  -6 1068.86 39.6128   1
   1  -1  -6 1137.12 29.3050   2
  -1   1   6 1103.22 29.2754   2
  -1   1   6 1123.54 29.4208   3
  -1   1   6 1158.75 39.4369   1
   0  -1  -6 228.089 15.7963   1
   0  -1  -6 237.468 6.87516   2
   0   1   6 249.560 14.0393   1
   0   1   6 246.764 6.83891   3
   0   1   6 249.265 6.89266   2
  -1  -1  -6 1.25314 0.57051   2
  -1  -1  -6 -0.0884 3.47840   1
   1   1   6 0.84589 3.56592   1
   1   1   6 0.81910 0.50741   2
  -2  -1  -6 1990.85 59.6707   1
  -2  -1  -6 1974.17 51.8939   2
   2   1   6 1977.15 51.8770   2
   2   1   6 2099.12 60.6028   1
  -3  -1  -6 1.48150 4.00496   1
   3   1   6 2.14127 4.30528   1
   3   1   6 1.37271 0.70013   2
  -4  -1  -6 128.114 11.5031   1
   4   1   6 140.237 11.6652   1
   4   1   6 127.435 4.27045   2
  -5  -1  -6 65.3598 9.93138   1
   5   1   6 58.4762 9.74666   1
   5   1   6 56.5178 3.58308   2
  -6  -1  -6 13.5507 8.20786   1
  -6  -1  -6 13.2539 1.08763   3
   6   1   6 6.62122 8.19529   1
   6   1   6 14.8242 1.61680   2
  -7  -1  -6 3.83712 0.94464   3
   7   1   6 12.7990 10.1611   1
   7   1   6 2.01830 1.11975   2
  -8  -1  -6 187.256 5.80635   3
  -8  -1  -6 146.822 19.9344   1
   8   1   6 151.317 20.4855   1
   8   1   6 177.164 6.40446   2
  -9  -1  -6 0.73974 15.4240   1
  -9  -1  -6 9.29144 1.51641   3
   9   1   6 17.1561 16.9387   1
   9   1   6 8.83050 1.71313   2
 -10  -1  -6 19.6499 2.00067   3
 -10  -1  -6 45.5502 20.9920   1
  10   1   6 38.3673 29.8044   1
  10   1   6 19.2944 2.45283   2
 -11  -1  -6 0.12217 1.15554   3
  11   1   6 3.02233 1.78363   2
   9  -2  -6 10.7580 2.23923   2
   9  -2  -6 0.43393 43.5371   1
   9  -2  -6 -19.270 32.6747   1
  -9   2   6 4.79507 2.45780   3
   8  -2  -6 13.0251 26.0242   1
   8  -2  -6 10.1892 1.99159   2
   8  -2  -6 -10.235 22.0170   1
  -8   2   6 3.96574 1.73451   3
   7  -2  -6 -1.9678 15.6754   1
   7  -2  -6 14.3003 2.00511   2
  -7   2   6 10.4686 1.94838   3
   6  -2  -6 15.7017 1.86802   2
   6  -2  -6 9.76440 13.6081   1
   6  -2  -6 -14.838 14.3792   1
  -6   2   6 20.7174 2.50321   3
   5  -2  -6 31.7639 2.48871   2
   5  -2  -6 13.7714 11.1379   1
   5  -2  -6 20.4422 12.9067   1
  -5   2   6 31.4826 2.31749   2
  -5   2   6 33.2458 2.69456   3
   4  -2  -6 123.060 16.3551   1
   4  -2  -6 139.822 5.12316   2
   4  -2  -6 147.438 16.5902   1
  -4   2   6 141.536 5.38011   3
  -4   2   6 151.555 5.10891   2
   3  -2  -6 60.5885 10.8639   1
   3  -2  -6 64.7224 10.9216   1
  -3   2   6 57.8675 2.85708   3
  -3   2   6 57.6116 2.66032   2
   2  -2  -6 61.5837 9.83977   1
   2  -2  -6 58.7658 9.37997   1
   2  -2  -6 53.6804 2.45859   2
  -2   2   6 58.9201 2.61998   3
  -2   2   6 54.4832 2.42843   2
   1  -2  -6 287.440 16.9914   1
   1  -2  -6 306.719 8.81339   2
   1  -2  -6 326.562 17.7589   1
  -1   2   6 313.532 8.81055   2
  -1   2   6 317.524 8.94926   3
   0  -2  -6 -5.7999 3.91827   1
   0  -2  -6 1.62480 0.75421   2
   0   2   6 1.55725 3.87989   1
   0   2   6 3.30706 0.73266   3
   0   2   6 2.01202 0.71730   2
  -1  -2  -6 121.833 9.36571   1
  -1  -2  -6 113.965 3.70219   2
   1   2   6 117.280 9.10807   1
   1   2   6 112.798 3.44053   3
   1   2   6 112.989 3.66911   2
  -2  -2  -6 96.9471 8.08223   1
  -2  -2  -6 88.2693 3.10702   2
   2   2   6 94.1896 8.30849   1
  -3  -2  -6 261.120 13.3014   1
   3   2   6 254.300 13.7580   1
   3   2   6 251.071 7.31460   2
  -4  -2  -6 93.1247 8.96862   1
   4   2   6 85.8616 9.27548   1
  -5  -2  -6 8.22362 4.85013   1
   5   2   6 5.08582 5.52440   1
  -6  -2  -6 102.478 12.3000   1
  -6  -2  -6 99.4644 3.12456   3
   6   2   6 95.5954 3.85789   2
   6   2   6 116.042 14.0197   1
  -7  -2  -6 14.7226 14.1915   1
  -7  -2  -6 6.20478 0.95735   3
   7   2   6 -9.0280 8.47435   1
   7   2   6 8.51765 1.41081   2
  -8  -2  -6 5.07143 10.0358   1
  -8  -2  -6 10.5858 1.28909   3
   8   2   6 5.23148 10.2946   1
   8   2   6 10.2916 1.59916   2
  -9  -2  -6 33.5424 14.0848   1
  -9  -2  -6 32.8823 2.18078   3
   9   2   6 50.2152 15.6087   1
   9   2   6 37.9386 3.04795   2
 -10  -2  -6 -9.0595 17.0900   1
 -10  -2  -6 -0.4334 1.05721   3
  10   2   6 2.47603 1.37399   2
 -11  -2  -6 3.27396 1.25558   3
  11   2   6 1.42672 1.76575   2
 -12  -2  -6 6.41682 1.56558   3
  12   2   6 5.25834 2.28225   2
   9  -3  -6 65.8108 87.8089   1
   9  -3  -6 62.0660 41.8428   1
   8  -3  -6 -31.688 29.4692   1
   8  -3  -6 74.1657 32.0178   1
   8  -3  -6 4.10025 1.69754   2
  -8   3   6 7.13370 2.10469   3
   7  -3  -6 -16.247 18.4191   1
   7  -3  -6 -12.534 33.6742   1
   7  -3  -6 4.11671 1.66713   2
  -7   3   6 2.79164 1.56137   3
   6  -3  -6 8.17901 17.3179   1
   6  -3  -6 1.48648 1.24426   2
  -6   3   6 1.68054 1.63917   3
   5  -3  -6 30.3409 2.55967   2
   5  -3  -6 37.7550 14.4560   1
   5  -3  -6 27.2157 12.0329   1
  -5   3   6 30.3830 2.75754   3
   4  -3  -6 183.307 19.9771   1
   4  -3  -6 155.329 5.55096   2
   4  -3  -6 137.119 17.2604   1
  -4   3   6 140.367 7.14360   2
  -4   3   6 161.146 5.94191   3
   3  -3  -6 170.342 17.7453   1
   3  -3  -6 163.544 5.55369   2
  -3   3   6 162.252 5.83511   3
  -3   3   6 164.639 5.52571   2
   2  -3  -6 287.549 19.0680   1
   2  -3  -6 290.261 8.39143   2
   2  -3  -6 282.064 19.2782   1
  -2   3   6 273.029 8.30276   2
  -2   3   6 281.772 8.61979   3
   1  -3  -6 35.4891 2.26073   2
   1  -3  -6 33.0936 7.09580   1
   1  -3  -6 35.1107 7.22358   1
  -1   3   6 40.6666 2.06866   3
  -1   3   6 38.6383 1.94869   2
   0  -3  -6 663.038 18.2520   2
   0  -3  -6 680.543 26.9535   1
   0   3   6 701.605 18.3889   3
   0   3   6 677.362 18.2581   2
  -1  -3  -6 428.683 18.4350   1
  -1  -3  -6 400.887 18.3664   1
  -1  -3  -6 453.124 12.1692   2
   1   3   6 453.121 19.4846   1
   1   3   6 451.696 12.0148   3
   1   3   6 453.755 12.1501   2
  -2  -3  -6 15.5019 3.96590   1
  -2  -3  -6 8.43422 0.96185   2
   2   3   6 1.96089 3.33136   1
   2   3   6 7.58587 0.93412   2
  -3  -3  -6 80.4920 6.99238   1
   3   3   6 80.0683 7.60198   1
   3   3   6 66.2001 2.70407   2
  -4  -3  -6 518.173 19.8280   1
   4   3   6 503.458 14.0548   2
   4   3   6 523.337 21.0616   1
  -5  -3  -6 215.295 12.8137   1
   5   3   6 227.212 6.87256   2
   5   3   6 223.220 14.2227   1
  -6  -3  -6 78.3257 9.44164   1
   6   3   6 46.3157 9.31961   1
   6   3   6 69.8534 3.11335   2
  -7  -3  -6 109.376 15.1770   1
  -7  -3  -6 127.456 3.95667   3
   7   3   6 121.572 4.75492   2
  -8  -3  -6 304.606 8.88405   3
  -8  -3  -6 319.587 21.2270   1
   8   3   6 301.069 24.0758   1
   8   3   6 315.028 9.77284   2
  -9  -3  -6 -1.9798 10.8230   1
  -9  -3  -6 1.17398 0.93605   3
   9   3   6 -11.437 12.6306   1
   9   3   6 0.26557 1.16356   2
 -10  -3  -6 68.3427 17.7057   1
 -10  -3  -6 56.4022 2.89349   3
  10   3   6 52.4061 3.71712   2
 -11  -3  -6 3.07240 1.28442   3
  11   3   6 -0.0871 1.49884   2
 -12  -3  -6 6.86999 1.57181   3
  12   3   6 2.38498 2.34131   2
   8  -4  -6 57.3701 44.5853   1
   8  -4  -6 31.7768 34.2889   1
   7  -4  -6 -23.792 25.8264   1
   7  -4  -6 -82.945 37.8760   1
   7  -4  -6 -0.5639 1.14822   2
  -7   4   6 2.79019 2.05477   3
   6  -4  -6 -3.0751 19.2924   1
   6  -4  -6 6.54826 1.62482   2
   6  -4  -6 -9.6224 18.0589   1
  -6   4   6 7.09170 1.93259   3
   5  -4  -6 -9.8361 13.7538   1
   5  -4  -6 -11.333 12.2263   1
   5  -4  -6 0.80496 1.14210   2
  -5   4   6 2.86956 1.42927   3
   4  -4  -6 119.879 4.69150   2
   4  -4  -6 97.0489 16.5376   1
   4  -4  -6 120.220 18.0868   1
  -4   4   6 112.934 4.54713   2
   3  -4  -6 8.69770 8.90736   1
   3  -4  -6 0.49614 0.90730   2
   3  -4  -6 -7.3766 7.24008   1
  -3   4   6 0.10529 0.89031   2
  -3   4   6 0.81129 1.11768   3
   2  -4  -6 272.396 20.2828   1
   2  -4  -6 292.325 8.70657   2
   2  -4  -6 294.319 20.8440   1
  -2   4   6 293.779 9.03964   3
  -2   4   6 288.035 8.67151   2
   1  -4  -6 327.082 20.7722   1
   1  -4  -6 368.265 21.1037   1
   1  -4  -6 370.467 10.4823   2
  -1   4   6 376.648 10.7413   3
  -1   4   6 364.256 10.4221   2
   0  -4  -6 30.7159 6.41601   1
   0  -4  -6 8.16724 4.49716   1
   0  -4  -6 15.9837 1.49349   2
   0   4   6 15.7912 1.39848   3
   0   4   6 18.0055 1.49200   2
  -1  -4  -6 245.149 13.2660   1
  -1  -4  -6 268.658 14.5710   1
  -1  -4  -6 249.058 7.48890   2
   1   4   6 258.035 7.81763   2
   1   4   6 262.676 7.48167   3
   1   4   6 252.448 14.2396   1
  -2  -4  -6 -0.6042 2.81072   1
  -2  -4  -6 2.16182 0.76293   2
  -2  -4  -6 0.87715 3.40849   1
   2   4   6 3.38558 3.53294   1
  -3  -4  -6 10.8785 1.16192   2
  -3  -4  -6 15.4496 3.26208   1
   3   4   6 16.2762 4.34528   1
   3   4   6 15.2600 1.51880   2
  -4  -4  -6 139.429 7.48915   1
   4   4   6 153.698 4.87110   2
   4   4   6 150.387 9.72875   1
  -5  -4  -6 262.758 11.8045   1
   5   4   6 258.006 7.94900   2
   5   4   6 291.170 14.8602   1
  -6  -4  -6 3.38159 3.93980   1
   6   4   6 6.83864 5.77260   1
   6   4   6 3.87458 1.54113   2
   6   4   6 1.99764 1.31848   2
  -7  -4  -6 1.55357 5.21865   1
   7   4   6 5.75519 7.90993   1
   7   4   6 0.90152 1.01825   2
  -8  -4  -6 -2.4213 6.79421   1
   8   4   6 -3.4074 8.62142   1
   8   4   6 4.19415 1.29047   2
  -9  -4  -6 22.8089 9.80601   1
  -9  -4  -6 18.7501 1.78916   3
   9   4   6 22.5434 12.2545   1
   9   4   6 21.8126 2.26389   2
 -10  -4  -6 91.8711 3.77757   3
  10   4   6 93.8288 4.77855   2
 -11  -4  -6 8.72967 1.51596   3
  11   4   6 10.1770 2.11102   2
  12   4   6 6.59867 2.03352   2
   7  -5  -6 22.3399 33.2872   1
   7  -5  -6 -93.712 58.9738   1
   6  -5  -6 -20.055 23.5120   1
   6  -5  -6 4.27317 1.50495   2
   6  -5  -6 25.6410 24.2129   1
  -6   5   6 1.57767 1.89918   3
   5  -5  -6 -3.2726 16.5090   1
   5  -5  -6 6.34119 14.9937   1
   5  -5  -6 1.22045 1.13486   2
  -5   5   6 0.11147 1.62352   3
   4  -5  -6 28.5491 13.2382   1
   4  -5  -6 11.6496 1.62872   2
   4  -5  -6 12.1930 11.4997   1
  -4   5   6 13.2176 2.32372   3
   3  -5  -6 26.8385 11.7191   1
   3  -5  -6 18.1190 1.95175   2
  -3   5   6 21.4945 2.07067   2
  -3   5   6 23.6337 2.37179   3
   2  -5  -6 183.425 20.0189   1
   2  -5  -6 222.193 18.5114   1
   2  -5  -6 222.406 7.10498   2
  -2   5   6 230.492 7.51983   3
  -2   5   6 217.971 7.03759   2
   1  -5  -6 -0.5019 0.76278   2
   1  -5  -6 0.91414 5.82328   1
  -1   5   6 -0.2059 0.99500   3
  -1   5   6 -0.1233 0.74806   2
   0  -5  -6 336.823 19.1410   1
   0  -5  -6 314.500 18.2351   1
   0  -5  -6 323.960 9.38769   2
   0   5   6 319.146 9.57348   3
   0   5   6 319.257 9.34862   2
  -1  -5  -6 76.4661 9.52285   1
  -1  -5  -6 70.2168 3.05230   2
  -1  -5  -6 89.3400 8.96175   1
   1   5   6 82.7796 3.08362   2
  -2  -5  -6 1032.18 32.9283   1
  -2  -5  -6 1067.95 27.7893   2
   2   5   6 1037.23 27.7137   2
  -3  -5  -6 80.8206 4.94240   1
  -3  -5  -6 87.6848 5.02849   1
  -3  -5  -6 83.9423 3.21897   2
   3   5   6 76.4137 3.06857   2
   3   5   6 83.8129 7.77682   1
   4   5   6 36.1751 2.03645   2
   4   5   6 43.9017 5.74106   1
   5   5   6 18.4983 4.74040   1
   5   5   6 14.0572 1.45622   2
   6   5   6 21.5378 1.89894   2
   6   5   6 32.6312 6.64642   1
   7   5   6 16.3412 7.41097   1
   7   5   6 25.9454 2.26254   2
   7   5   6 17.6009 1.83948   2
   8   5   6 64.4689 11.4104   1
   8   5   6 43.5185 2.92632   2
   9   5   6 5.78417 10.8686   1
   9   5   6 1.68268 1.33397   2
  10   5   6 112.255 22.5072   1
  10   5   6 114.355 5.30264   2
  11   5   6 6.70207 1.79182   2
  12   5   6 9.75552 2.30740   2
   7  -6  -6 10.4159 2.45736   2
  -7   6   6 11.5124 2.59338   3
   6  -6  -6 33.6467 25.8972   1
   6  -6  -6 12.1318 1.92028   2
   6  -6  -6 11.0023 28.7244   1
  -6   6   6 9.26169 2.34545   3
   5  -6  -6 5.57552 19.2675   1
   5  -6  -6 -0.4997 1.16151   2
   5  -6  -6 36.8235 22.3720   1
  -5   6   6 0.59514 1.64333   3
   4  -6  -6 6.94471 24.9867   1
   4  -6  -6 36.7057 14.6338   1
   4  -6  -6 16.9258 1.94827   2
  -4   6   6 18.2222 2.63894   3
   3  -6  -6 31.6980 13.5428   1
   3  -6  -6 16.1859 1.79066   2
   3  -6  -6 5.32687 14.0172   1
  -3   6   6 22.8878 2.48032   3
   2  -6  -6 306.051 26.7889   1
   2  -6  -6 268.732 23.1927   1
   2  -6  -6 339.382 10.0021   2
  -2   6   6 337.840 10.0270   2
  -2   6   6 325.762 10.5616   3
   1  -6  -6 77.0316 3.47171   2
   1  -6  -6 82.7558 12.6525   1
  -1   6   6 73.7425 3.36078   2
  -1   6   6 81.6543 3.78777   3
   0  -6  -6 31.8517 7.93011   1
   0  -6  -6 19.8579 7.55793   1
   0  -6  -6 21.6121 1.95886   2
   0   6   6 24.1539 2.04621   3
   0   6   6 24.1362 1.90271   2
  -1  -6  -6 3.59663 0.98547   2
  -1  -6  -6 1.33689 4.37546   1
  -1  -6  -6 8.49394 5.75166   1
   1   6   6 1.27848 0.85119   2
  -2  -6  -6 1.34561 0.85149   2
  -2  -6  -6 1.57136 3.94486   1
  -2  -6  -6 -1.5451 3.10281   1
   2   6   6 0.56570 0.73261   2
  -3  -6  -6 241.674 7.46519   2
   3   6   6 249.444 7.44198   2
   4   6   6 369.920 15.3574   1
   4   6   6 369.110 10.6402   2
   5   6   6 70.1260 7.26186   1
   5   6   6 73.0369 3.13327   2
   6   6   6 17.4044 1.74888   2
   6   6   6 13.8947 4.78371   1
   7   6   6 105.978 11.2419   1
   7   6   6 129.374 4.91006   2
   8   6   6 0.67362 1.09507   2
   8   6   6 -0.1135 7.17903   1
   9   6   6 -5.0178 9.53973   1
   9   6   6 7.63311 1.68300   2
  10   6   6 4.19002 1.59227   2
  10   6   6 -3.8216 13.2536   1
  11   6   6 -0.9585 1.37288   2
  12   6   6 2.88412 1.79442   2
   6  -7  -6 -1.8890 1.47943   2
  -6   7   6 1.92233 2.12312   3
   5  -7  -6 -42.726 27.8281   1
   4  -7  -6 23.2732 21.1946   1
   3  -7  -6 11.8076 15.3261   1
   3  -7  -6 19.6863 13.6480   1
   2  -7  -6 43.8996 13.5821   1
   2  -7  -6 5.87813 13.4223   1
   2  -7  -6 57.8243 3.16257   2
  -2   7   6 55.5539 15.0897   1
  -2   7   6 54.2948 3.50711   3
   1  -7  -6 18.8688 1.84496   2
   1  -7  -6 9.47069 9.82063   1
   1  -7  -6 6.49242 8.79891   1
  -1   7   6 18.7793 3.59463   3
  -1   7   6 18.5414 1.98727   2
  -1   7   6 14.3396 10.5055   1
   0  -7  -6 478.804 13.5203   2
   0  -7  -6 453.281 24.9608   1
   0   7   6 474.520 14.0153   3
   0   7   6 470.289 13.4440   2
  -1  -7  -6 234.204 7.41170   2
  -1  -7  -6 238.712 22.6339   1
  -1  -7  -6 233.782 16.2480   1
   1   7   6 239.889 7.39507   2
  -2  -7  -6 316.651 15.3934   1
  -2  -7  -6 337.622 14.8329   1
  -2  -7  -6 335.734 9.85302   2
   2   7   6 339.996 9.81169   2
  -3  -7  -6 172.102 5.65556   2
   3   7   6 164.676 5.55713   2
   4   7   6 277.338 8.36953   2
   5   7   6 108.140 4.14359   2
   6   7   6 84.2790 7.37221   1
   6   7   6 102.593 4.02723   2
   7   7   6 229.344 7.59933   2
   7   7   6 223.692 7.47642   2
   7   7   6 233.400 12.8792   1
   8   7   6 163.150 13.9246   1
   8   7   6 146.448 5.69090   2
   9   7   6 32.2522 9.82746   1
   9   7   6 31.4797 2.88716   2
  10   7   6 12.7770 12.4498   1
  11   7   6 10.7471 1.98653   2
  12   7   6 2.71232 1.76857   2
   5  -8  -6 2.76769 1.74356   2
  -5   8   6 1.22796 2.28635   3
   4  -8  -6 55.9109 24.3574   1
   4  -8  -6 57.1242 3.55672   2
  -4   8   6 47.9799 4.20495   3
   3  -8  -6 60.8539 20.4057   1
   3  -8  -6 53.7747 4.18759   2
  -3   8   6 45.9644 3.75543   3
   2  -8  -6 31.7388 15.9478   1
   2  -8  -6 38.9953 2.87724   2
   2  -8  -6 14.4828 14.1070   1
  -2   8   6 34.8477 3.18972   3
   1  -8  -6 -4.6239 9.31080   1
   1  -8  -6 -3.6383 12.6352   1
   1  -8  -6 2.16430 1.10424   2
  -1   8   6 9.22129 12.0267   1
  -1   8   6 2.12257 1.28658   3
   0  -8  -6 5.49530 8.03430   1
   0  -8  -6 13.1797 9.62266   1
   0  -8  -6 5.48922 1.25033   2
   0   8   6 6.51322 1.74247   3
   0   8   6 7.63136 1.31532   2
  -1  -8  -6 -2.1920 7.02336   1
  -1  -8  -6 0.64898 0.90017   2
  -1  -8  -6 -1.4130 6.19471   1
   1   8   6 -1.6344 0.79456   2
  -2  -8  -6 5.91495 1.14648   2
  -2  -8  -6 5.33935 4.94893   1
  -2  -8  -6 8.03404 4.34484   1
   2   8   6 2.97771 0.98938   2
  -3  -8  -6 7.50631 1.32191   2
   3   8   6 5.76535 1.14802   2
   4   8   6 34.6460 2.22328   2
   5   8   6 60.4417 2.95089   2
   7   8   6 19.7151 1.93053   2
   8   8   6 -6.6947 4.61936   1
   8   8   6 0.17588 1.21327   2
   9   8   6 73.7974 10.0162   1
   9   8   6 67.6634 3.87092   2
  10   8   6 19.4288 2.26753   2
  10   8   6 32.0011 11.5542   1
  11   8   6 -1.5451 1.38531   2
  12   8   6 4.91986 2.07468   2
   4  -9  -6 9.82350 1.97615   2
  -4   9   6 9.20119 2.63673   3
   3  -9  -6 -17.990 24.6372   1
   3  -9  -6 7.79824 1.66210   2
  -3   9   6 9.05222 2.39922   3
   2  -9  -6 -5.1914 18.5448   1
  -2   9   6 1.78361 1.58345   3
   1  -9  -6 35.2454 2.63742   2
   1  -9  -6 39.7566 22.1541   1
   1  -9  -6 21.7881 15.2794   1
  -1   9   6 30.0161 3.08122   3
   0  -9  -6 30.1154 11.4308   1
   0  -9  -6 35.4812 12.6405   1
   0  -9  -6 35.8041 2.57035   2
   0   9   6 34.3400 3.10766   3
  -1  -9  -6 8.67128 8.89496   1
  -1  -9  -6 8.15908 7.38452   1
  -2  -9  -6 7.69024 1.45804   2
  -2  -9  -6 4.93579 4.75874   1
  -2  -9  -6 4.62541 5.05106   1
   2   9   6 8.02945 2.08979   2
  -3  -9  -6 42.7861 2.60638   2
   3   9   6 36.7934 2.38258   2
   4   9   6 0.63075 0.92962   2
   5   9   6 53.4631 3.40250   2
   6   9   6 2.19848 0.98717   2
   8   9   6 5.08580 1.42735   2
   9   9   6 20.8644 3.07179   2
  10   9   6 63.0166 9.12170   1
  10   9   6 86.4793 9.70693   1
  10   9   6 78.6324 4.37991   2
  11   9   6 -7.8634 12.6748   1
  12   9   6 59.8282 4.62720   2
   3 -10  -6 -0.9728 1.33710   2
  -3  10   6 3.61044 1.96130   3
   2 -10  -6 45.7991 28.1010   1
   2 -10  -6 35.4010 3.00716   2
  -2  10   6 37.0980 3.83773   3
   1 -10  -6 16.2506 19.4010   1
   0 -10  -6 4.88330 12.4414   1
   0 -10  -6 22.3271 14.2969   1
   0 -10  -6 15.0995 1.79923   2
   0  10   6 10.5476 1.96884   3
  -1 -10  -6 12.9761 1.66686   2
  -1 -10  -6 9.94089 8.79887   1
  -1 -10  -6 7.80710 10.1857   1
  -2 -10  -6 1.89272 1.05959   2
  -2 -10  -6 6.89072 4.40471   1
  -2 -10  -6 5.74684 4.86332   1
  -3 -10  -6 13.2538 1.76661   2
   3  10   6 10.7581 1.46162   2
   4  10   6 8.33009 1.33794   2
   5  10   6 2.37350 0.96248   2
   8  10   6 10.5769 1.75870   2
   9  10   6 12.8460 1.88565   2
  10  10   6 25.8159 2.55419   2
  11  10   6 7.82559 1.89558   2
   2 -11  -6 4.23997 1.47328   2
  -2  11   6 -0.8461 1.85274   3
   1 -11  -6 23.0466 25.7076   1
   1 -11  -6 15.7777 2.06446   2
  -1  11   6 15.3850 2.93364   3
   0 -11  -6 2.09286 1.26188   2
   0  11   6 3.98017 1.90231   3
  -1 -11  -6 1.45306 1.12398   2
  -1 -11  -6 -7.7159 11.3401   1
  -1 -11  -6 9.05584 10.4720   1
   1  11   6 2.64941 1.82440   3
  -2 -11  -6 2.58614 1.24490   2
  -3 -11  -6 45.6269 2.91958   2
   9  11   6 11.2227 1.81358   2
  10  11   6 11.7303 2.02729   2
  11  11   6 2.06741 1.56519   2
   0 -12  -6 38.4097 3.04468   2
   0 -12  -6 2.83813 23.3541   1
   0  12   6 39.7016 4.24063   3
  -1 -12  -6 11.2231 1.89289   2
   1  12   6 14.0817 2.70315   3
   8  12   6 1.21232 1.11638   2
   9  12   6 7.52094 1.67422   2
  10  12   6 3.60987 1.59904   2
  -2 -13  -6 63.9018 3.60492   2
   2  13   6 71.8663 5.21912   3
   8  13   6 21.6007 2.23808   2
   9  13   6 3.41562 1.38546   2
   8  12  -7 -37.056 25.5061   1
   7  12  -7 9.90601 23.1175   1
   6  12  -7 -6.7407 32.6279   1
   5  12  -7 23.7037 21.3409   1
   4  12  -7 -13.854 21.1973   1
   3  12  -7 23.3775 24.4015   1
  -3 -12   7 10.6111 12.3695   1
   2  12  -7 25.7591 26.8120   1
  -2 -12   7 15.7069 15.5061   1
   1  12  -7 -5.1359 29.3907   1
  -1 -12   7 0.16486 20.1637   1
   9  11  -7 2.93582 1.07595   2
   9  11  -7 7.13337 26.2174   1
   8  11  -7 0.17058 20.8436   1
   7  11  -7 -2.7690 17.5837   1
   6  11  -7 3.17874 17.9613   1
   5  11  -7 11.6157 16.3911   1
   4  11  -7 -9.7907 16.3498   1
   3  11  -7 33.4903 17.6858   1
  -3 -11   7 14.3370 10.1231   1
  -2 -11   7 2.92480 12.1910   1
   1  11  -7 25.5252 21.8744   1
  -1 -11   7 17.2539 16.6756   1
   0  11  -7 19.4297 23.8528   1
   0 -11   7 25.0607 19.7057   1
  -1  11  -7 45.4922 33.1525   1
   1 -11   7 8.01095 24.5794   1
   9  10  -7 -21.952 31.2769   1
   9  10  -7 -2.3573 0.97585   2
   8  10  -7 13.0198 1.38082   2
   8  10  -7 21.1178 1.82073   2
   8  10  -7 37.9800 18.6982   1
   7  10  -7 79.7130 18.7496   1
   7  10  -7 93.5616 3.16328   2
   7  10  -7 88.5010 3.10931   2
   6  10  -7 -6.0440 13.5986   1
   5  10  -7 32.5762 14.2075   1
   4  10  -7 5.04369 13.3869   1
   3  10  -7 10.6590 14.2031   1
  -3 -10   7 4.31900 9.28140   1
   2  10  -7 18.8923 15.0440   1
  -2 -10   7 14.1897 11.1326   1
   1  10  -7 16.6631 17.6550   1
  -1 -10   7 44.6621 14.6469   1
   0  10  -7 -1.1808 18.5959   1
   0 -10   7 -4.5654 14.7960   1
  -1  10  -7 -14.986 19.5712   1
   1 -10   7 18.7559 34.0858   1
  -2  10  -7 -16.082 30.7895   1
   2 -10   7 19.1744 24.8670   1
  -3  10  -7 119.018 37.5629   1
   3 -10   7 9.21255 44.6912   1
  -4  10  -7 32.6644 3.92177   3
  10   9  -7 5.26939 1.36497   2
  10   9  -7 -9.9401 29.6151   1
   9   9  -7 2.86151 19.7853   1
   8   9  -7 44.0799 17.5189   1
   8   9  -7 64.0689 2.99719   2
   7   9  -7 15.5189 14.2494   1
   7   9  -7 18.5204 1.54248   2
   6   9  -7 61.5142 2.27649   2
   6   9  -7 45.8976 13.9730   1
   6   9  -7 57.7262 2.22376   2
   5   9  -7 -7.6299 10.3630   1
   4   9  -7 19.9408 11.7133   1
  -4  -9   7 21.6867 7.72798   1
   3   9  -7 6.77739 11.2853   1
  -3  -9   7 19.1460 8.74220   1
   2   9  -7 -3.8260 11.4333   1
  -2  -9   7 3.12637 9.16002   1
   1   9  -7 43.7103 14.1635   1
  -1  -9   7 34.3836 13.5864   1
   0   9  -7 14.4223 14.1683   1
   0  -9   7 -2.2979 17.6980   1
  -1   9  -7 24.8293 15.8931   1
   1  -9   7 -13.297 14.4021   1
  -2   9  -7 -21.630 24.8393   1
   2  -9   7 10.6971 31.3646   1
  -3   9  -7 -7.2233 24.2407   1
   3  -9   7 -35.073 21.3313   1
  -4   9  -7 18.7659 32.5102   1
   4  -9   7 30.0220 31.2502   1
  -5   9  -7 13.6116 2.84770   3
   5  -9   7 16.7582 1.63170   2
  11   8  -7 9.24201 1.80861   2
  10   8  -7 25.7291 25.3687   1
   9   8  -7 1.35350 1.07808   2
   9   8  -7 -8.9395 17.6528   1
   8   8  -7 9.73803 1.37247   2
   8   8  -7 11.1488 15.8588   1
   8   8  -7 21.1571 15.3633   1
   7   8  -7 21.1527 12.4879   1
   6   8  -7 8.09412 10.3391   1
   6   8  -7 9.17085 1.08036   2
   5   8  -7 9.45054 0.82742   2
   5   8  -7 8.30980 0.82905   2
   4   8  -7 59.3028 12.6800   1
  -4  -8   7 66.9401 9.87376   1
   3   8  -7 36.9914 11.6090   1
  -3  -8   7 39.9531 9.40778   1
   2   8  -7 174.656 19.9497   1
   1   8  -7 109.113 16.7609   1
  -1  -8   7 123.252 15.5567   1
   0   8  -7 204.085 22.4395   1
   0  -8   7 226.867 21.5213   1
  -1   8  -7 34.6656 14.8265   1
   1  -8   7 10.3494 11.8045   1
   2  -8   7 10.3530 12.3758   1
  -3   8  -7 19.9586 18.3914   1
   3  -8   7 0.43495 0.62086   2
   3  -8   7 -18.339 15.3753   1
  -4   8  -7 45.7835 25.8608   1
   4  -8   7 49.8884 28.7255   1
   4  -8   7 52.4922 2.40939   2
  -5   8  -7 24.1854 3.23255   3
   5  -8   7 17.8757 1.63585   2
   5  -8   7 39.1035 32.1226   1
  -6   8  -7 1.25176 1.71638   3
  -6   8  -7 -23.111 48.0604   1
   6  -8   7 2.05374 1.06790   2
  11   7  -7 0.15226 1.55173   2
 -11  -7   7 -2.3633 2.21855   3
  10   7  -7 26.0500 29.4676   1
   9   7  -7 7.34050 1.46755   2
  -9  -7   7 8.22549 2.21066   3
   8   7  -7 7.87915 16.5975   1
   7   7  -7 2.67645 1.04230   2
   7   7  -7 -5.5013 11.2449   1
   6   7  -7 46.8736 12.2611   1
   6   7  -7 49.8586 2.38603   2
   5   7  -7 53.0130 12.0097   1
   5   7  -7 46.7434 2.03156   2
   4   7  -7 147.186 16.4214   1
  -4  -7   7 122.946 12.8791   1
   3   7  -7 208.105 18.4078   1
  -3  -7   7 171.857 22.5041   1
   2   7  -7 8.87344 8.36165   1
  -2  -7   7 8.06779 6.95540   1
   1   7  -7 205.174 20.1487   1
  -1  -7   7 190.133 17.1853   1
   0   7  -7 54.2008 11.9918   1
   0  -7   7 31.1553 9.76962   1
  -1   7  -7 24.8383 11.7227   1
   2  -7   7 13.5332 11.7047   1
  -3   7  -7 13.8810 15.8914   1
   3  -7   7 2.37753 0.70798   2
   3  -7   7 -3.0568 12.6825   1
  -4   7  -7 -1.0426 19.8298   1
   4  -7   7 6.16427 17.8151   1
   4  -7   7 8.04238 1.12172   2
  -5   7  -7 23.3126 24.5073   1
   5  -7   7 2.61295 20.9605   1
  -6   7  -7 -24.551 30.7684   1
   6  -7   7 -1.5368 30.1911   1
  -7   7  -7 1.39480 1.68513   3
   7  -7   7 0.69903 1.17849   2
  11   6  -7 24.8069 2.62401   2
 -11  -6   7 24.0298 3.75196   3
  10   6  -7 0.79795 23.3362   1
  10   6  -7 4.00354 1.44314   2
 -10  -6   7 0.77216 1.89353   3
   9   6  -7 0.22281 1.24903   2
   9   6  -7 10.5528 18.5245   1
   9   6  -7 -6.0198 17.2145   1
  -9  -6   7 2.26065 1.68173   3
   8   6  -7 78.1445 17.7765   1
   8   6  -7 79.9728 3.70118   2
   8   6  -7 63.2808 16.4416   1
  -8  -6   7 78.3327 4.05763   2
  -8  -6   7 74.8579 4.43039   3
   7   6  -7 19.0804 11.5406   1
   7   6  -7 26.7047 13.4974   1
   7   6  -7 34.4477 2.35412   2
  -7  -6   7 32.0338 2.89274   3
  -7  -6   7 27.8527 2.08894   2
   6   6  -7 -1.0425 9.22029   1
   6   6  -7 12.7322 1.33838   2
  -6  -6   7 13.5818 3.60977   3
  -6  -6   7 12.6922 1.31681   2
   5   6  -7 22.8814 9.16258   1
   5   6  -7 20.4672 1.56153   2
   4   6  -7 2.28053 0.65960   2
   4   6  -7 3.05307 7.19653   1
   3   6  -7 25.9186 7.82318   1
  -3  -6   7 17.0299 6.78067   1
   2   6  -7 20.9444 7.76204   1
  -2  -6   7 15.3068 6.90532   1
   1   6  -7 346.683 22.8508   1
  -1  -6   7 348.299 20.9905   1
   0   6  -7 179.670 18.2335   1
  -1   6  -7 1069.99 46.4330   1
   1  -6   7 1023.63 43.9324   1
   2  -6   7 16.7381 10.5072   1
   2  -6   7 14.5090 1.02604   2
  -3   6  -7 157.850 22.0065   1
   3  -6   7 162.051 4.91341   2
  -4   6  -7 5.03887 13.6839   1
   4  -6   7 10.8993 15.1361   1
  -5   6  -7 4.45019 17.7348   1
  -5   6  -7 8.29932 1.83669   3
   5  -6   7 -5.5302 18.7755   1
  -6   6  -7 5.57088 24.0295   1
   6  -6   7 -4.3347 22.8904   1
  -7   6  -7 52.5181 3.80256   3
  -7   6  -7 57.5430 34.7072   1
   7  -6   7 32.7746 34.2662   1
   7  -6   7 63.0844 3.38299   2
  -8   6  -7 1.46516 1.71454   3
   8  -6   7 -1.6410 1.27435   2
  11   5  -7 6.93665 1.76378   2
 -11  -5   7 6.79951 2.48877   3
  10   5  -7 18.5311 24.7726   1
   9   5  -7 53.6109 19.4222   1
   9   5  -7 1.98586 18.3024   1
   9   5  -7 35.9849 3.16382   2
  -9  -5   7 30.9574 3.36623   3
   8   5  -7 9.78998 15.1654   1
   8   5  -7 2.99535 12.7784   1
   7   5  -7 150.131 18.9940   1
   7   5  -7 179.486 20.8464   1
   7   5  -7 168.614 5.68585   2
  -7  -5   7 162.564 6.46188   3
  -7  -5   7 148.304 5.46864   2
   6   5  -7 147.557 18.0066   1
   6   5  -7 146.603 5.08904   2
  -6  -5   7 151.616 5.04894   2
  -6  -5   7 151.249 5.95703   3
   5   5  -7 8.15044 7.94869   1
  -5  -5   7 4.46834 1.29736   3
  -5  -5   7 5.12573 0.93154   2
   4   5  -7 113.168 3.64690   2
   4   5  -7 114.848 13.6645   1
  -4  -5   7 109.228 4.51695   3
  -4  -5   7 113.647 3.63166   2
  -4  -5   7 128.641 12.7752   1
   3   5  -7 66.9524 10.1197   1
   3   5  -7 72.1189 2.35332   2
  -3  -5   7 69.9704 9.68878   1
  -3  -5   7 73.3001 2.33585   2
   2   5  -7 30.7828 8.19443   1
  -2  -5   7 33.8197 7.64541   1
   1   5  -7 6.33805 5.89224   1
   0   5  -7 41.1991 9.72004   1
   0  -5   7 29.1417 8.12811   1
  -1   5  -7 -7.7241 6.67144   1
   1  -5   7 -0.3178 5.98186   1
   2  -5   7 0.20565 0.49117   2
   2  -5   7 -4.1181 7.31730   1
  -3   5  -7 21.9832 11.2501   1
   3  -5   7 32.4112 1.72544   2
   3  -5   7 35.9871 11.1685   1
  -4   5  -7 6.13552 11.7256   1
   4  -5   7 -16.959 10.3297   1
   4  -5   7 2.87483 0.86306   2
  -5   5  -7 24.2534 2.23563   3
  -5   5  -7 36.6811 17.0084   1
   5  -5   7 27.3239 2.02422   2
   5  -5   7 27.8564 15.2730   1
  -6   5  -7 50.7730 3.41831   3
  -6   5  -7 35.3144 23.9357   1
   6  -5   7 28.4944 20.3095   1
   6  -5   7 49.2727 2.84592   2
  -7   5  -7 1.20355 1.49668   3
  -7   5  -7 1.26928 25.0122   1
   7  -5   7 -25.316 30.8716   1
   7  -5   7 -0.7784 1.14231   2
  -8   5  -7 2.55980 40.6717   1
   8  -5   7 37.6429 39.8818   1
  11   4  -7 3.10833 1.83675   2
 -11  -4   7 2.25768 2.24097   3
  10   4  -7 36.7561 3.31451   2
  10   4  -7 28.5309 24.6288   1
 -10  -4   7 41.6500 4.05497   3
   9   4  -7 29.2643 2.86952   2
   9   4  -7 29.0097 24.1691   1
   9   4  -7 20.8875 18.5113   1
  -9  -4   7 20.2917 2.85727   3
   8   4  -7 21.6461 2.18296   2
   8   4  -7 16.5359 13.8655   1
   8   4  -7 18.9266 14.4660   1
  -8  -4   7 27.2912 3.16911   3
   7   4  -7 -8.2096 9.38059   1
   7   4  -7 1.50483 1.05311   2
   7   4  -7 -10.713 12.0794   1
  -7  -4   7 0.45544 1.33316   3
  -7  -4   7 1.22442 0.91126   2
   6   4  -7 231.179 7.31021   2
   6   4  -7 218.003 21.9751   1
   6   4  -7 250.708 20.6877   1
  -6  -4   7 230.403 8.04173   3
  -6  -4   7 237.256 7.30975   2
   5   4  -7 75.1435 12.4410   1
   5   4  -7 77.8847 3.49383   2
  -5  -4   7 75.0284 3.67487   3
  -5  -4   7 73.4992 3.02124   2
   4   4  -7 159.605 15.6916   1
   4   4  -7 149.189 4.67098   2
  -4  -4   7 150.525 4.66762   2
  -4  -4   7 144.990 5.36296   3
   3   4  -7 6.72872 0.79581   2
   3   4  -7 4.51579 5.32176   1
  -3  -4   7 7.05813 0.78298   2
  -3  -4   7 3.85816 4.76292   1
  -3  -4   7 6.84208 1.22992   3
   2   4  -7 167.608 14.4611   1
   2   4  -7 159.414 4.51673   2
  -2  -4   7 165.066 4.53085   2
   1   4  -7 194.516 15.1574   1
  -1  -4   7 180.948 14.7219   1
   0   4  -7 14.3940 6.39257   1
   0  -4   7 20.8405 6.30966   1
  -1   4  -7 31.2946 8.78875   1
   1  -4   7 31.9138 1.13693   2
   1  -4   7 28.4370 7.66818   1
  -2   4  -7 87.7414 20.2797   1
   2  -4   7 83.6191 12.6598   1
   2  -4   7 83.3924 2.67543   2
  -3   4  -7 15.5610 9.65556   1
   3  -4   7 4.47789 8.47838   1
   3  -4   7 11.6958 1.09033   2
  -4   4  -7 17.1496 11.4668   1
   4  -4   7 26.5386 10.7516   1
  -5   4  -7 25.9843 12.5871   1
  -5   4  -7 1.52186 1.07272   3
   5  -4   7 -10.193 13.1276   1
   5  -4   7 1.43057 0.91976   2
  -6   4  -7 2.99635 1.24835   3
  -6   4  -7 17.0749 15.6026   1
   6  -4   7 7.59674 16.2554   1
   6  -4   7 4.07630 1.19057   2
  -7   4  -7 28.2244 20.2129   1
   7  -4   7 74.7793 36.6037   1
   7  -4   7 44.7091 2.89087   2
  -8   4  -7 86.7689 30.8064   1
  -8   4  -7 114.871 5.15643   3
   8  -4   7 107.128 34.5644   1
   8  -4   7 120.439 5.13396   2
  -9   4  -7 10.1870 2.05948   3
   9  -4   7 14.1581 69.8087   1
   9  -4   7 9.89062 1.87168   2
  11   3  -7 -1.0843 1.85540   2
 -11  -3   7 -3.1454 1.63486   3
  10   3  -7 4.67589 1.75224   2
  10   3  -7 -1.4256 25.1200   1
 -10  -3   7 3.18934 1.89495   3
   9   3  -7 3.55599 1.58284   2
   9   3  -7 18.9864 23.9530   1
  -9  -3   7 4.56492 2.02536   3
   8   3  -7 3.71389 13.3060   1
   8   3  -7 8.65747 14.9633   1
   8   3  -7 3.57189 1.30204   2
  -8  -3   7 0.30736 1.44191   3
   7   3  -7 13.2731 1.79611   2
   7   3  -7 -0.5408 10.9959   1
   7   3  -7 12.9640 11.3444   1
  -7  -3   7 16.1211 2.20946   3
  -7  -3   7 15.3854 1.62226   2
   6   3  -7 5.12915 1.18436   2
   6   3  -7 -12.495 15.1583   1
   6   3  -7 5.98956 9.92266   1
  -6  -3   7 5.99826 1.16226   2
  -6  -3   7 5.79807 1.49726   3
   5   3  -7 104.229 15.1560   1
   5   3  -7 93.0909 3.73599   2
  -5  -3   7 103.723 4.28598   3
  -5  -3   7 99.0218 3.72548   2
   4   3  -7 664.603 31.2762   1
   4   3  -7 657.038 17.6615   2
  -4  -3   7 649.033 18.3349   3
   3   3  -7 395.669 21.6770   1
   3   3  -7 405.780 10.9373   2
  -3  -3   7 400.159 11.5747   3
  -3  -3   7 408.096 10.9239   2
  -3  -3   7 373.739 21.6051   1
   2   3  -7 148.558 4.25409   2
   2   3  -7 129.254 12.3455   1
  -2  -3   7 149.291 4.24357   2
  -2  -3   7 133.974 12.2878   1
  -2  -3   7 144.940 4.85280   3
   1   3  -7 1276.04 46.1510   1
   1   3  -7 1341.29 34.5898   2
  -1  -3   7 1440.69 46.8904   1
  -1  -3   7 1320.07 34.5734   2
   0   3  -7 362.677 19.8371   1
   0  -3   7 361.009 9.62481   2
   0  -3   7 386.318 19.9990   1
  -1   3  -7 97.0419 14.3700   1
   1  -3   7 111.263 3.17030   2
   1  -3   7 109.567 3.16053   2
   1  -3   7 100.292 11.3271   1
  -2   3  -7 -1.6239 5.88912   1
   2  -3   7 -5.6856 6.85705   1
   2  -3   7 -0.1393 0.42171   2
   2  -3   7 -0.3110 0.46644   2
  -3   3  -7 149.202 16.0839   1
   3  -3   7 163.531 15.8946   1
   3  -3   7 152.010 4.65459   2
  -4   3  -7 292.687 23.1406   1
   4  -3   7 347.436 24.1203   1
   4  -3   7 297.559 9.27355   2
  -5   3  -7 205.113 6.52377   3
  -5   3  -7 192.525 20.5167   1
   5  -3   7 194.355 21.5831   1
   5  -3   7 207.191 6.45211   2
  -6   3  -7 -1.5982 13.8406   1
  -6   3  -7 0.67869 0.98285   3
   6  -3   7 3.77066 1.13021   2
   6  -3   7 16.9249 15.3429   1
  -7   3  -7 14.7629 1.87345   3
  -7   3  -7 13.6334 16.0875   1
   7  -3   7 13.9533 1.77662   2
  -8   3  -7 47.2971 25.0871   1
  -8   3  -7 51.7771 3.72832   3
   8  -3   7 54.1842 3.36681   2
   8  -3   7 40.2104 26.0843   1
  -9   3  -7 -0.6714 1.29381   3
  -9   3  -7 -15.248 29.8403   1
   9  -3   7 30.4997 31.9844   1
   9  -3   7 -0.4802 1.18762   2
 -10   3  -7 1.43214 1.44884   3
  10  -3   7 -0.9043 1.62727   2
  10   2  -7 49.4928 33.6475   1
   9   2  -7 15.3138 20.1509   1
   9   2  -7 20.1017 36.7208   1
   8   2  -7 -9.0151 16.5265   1
   8   2  -7 24.2048 15.8195   1
   8   2  -7 1.72782 1.34998   2
  -8  -2   7 0.55186 1.55530   3
   7   2  -7 23.6625 21.7794   1
   7   2  -7 38.5202 2.75840   2
   7   2  -7 56.2771 17.1828   1
  -7  -2   7 38.9202 3.11808   3
   6   2  -7 28.6283 13.1151   1
   6   2  -7 30.6828 2.45449   2
  -6  -2   7 37.3243 2.77217   3
  -6  -2   7 41.6124 2.42880   2
   5   2  -7 107.949 4.15985   2
   5   2  -7 84.9655 13.3817   1
   5   2  -7 112.286 16.3120   1
  -5  -2   7 116.025 4.11653   2
  -5  -2   7 115.554 4.61875   3
   4   2  -7 68.8671 2.84723   2
   4   2  -7 59.4867 10.8175   1
  -4  -2   7 70.0627 2.78760   2
  -4  -2   7 66.7077 3.15372   3
   3   2  -7 0.18549 0.59031   2
   3   2  -7 -3.8344 4.84226   1
  -3  -2   7 -7.8513 3.89734   1
  -3  -2   7 0.78534 0.81844   3
  -3  -2   7 0.65442 0.62581   2
   2   2  -7 61.4814 8.94529   1
   2   2  -7 67.5941 2.40147   2
  -2  -2   7 66.4781 2.36776   2
  -2  -2   7 69.8560 2.80682   3
  -2  -2   7 56.0522 8.71675   1
   1   2  -7 76.3305 9.40891   1
   1   2  -7 77.6828 2.49282   2
  -1  -2   7 75.2589 3.68335   3
  -1  -2   7 76.5371 2.45814   2
  -1  -2   7 65.7162 9.10188   1
   0   2  -7 1643.09 42.1131   2
   0   2  -7 1662.32 54.0143   1
   0  -2   7 1643.86 53.2974   1
   0  -2   7 1595.68 42.0835   2
  -1   2  -7 1288.72 50.1049   1
   1  -2   7 1311.61 34.3837   2
   1  -2   7 1395.66 46.6443   1
  -2   2  -7 99.7130 12.3165   1
   2  -2   7 101.614 3.23005   2
   2  -2   7 105.548 11.3857   1
   2  -2   7 104.707 3.21792   2
  -3   2  -7 129.249 13.8560   1
   3  -2   7 136.140 13.8433   1
   3  -2   7 123.678 3.98816   2
  -4   2  -7 153.701 16.3715   1
   4  -2   7 157.619 5.06652   2
   4  -2   7 168.647 16.3217   1
  -5   2  -7 1.25059 0.82682   3
  -5   2  -7 25.3633 11.2430   1
   5  -2   7 1.73890 9.87297   1
   5  -2   7 3.11437 0.99272   2
  -6   2  -7 -2.0547 10.0887   1
  -6   2  -7 -0.8241 0.80658   3
   6  -2   7 8.35132 11.2163   1
   6  -2   7 -0.5470 0.89768   2
  -7   2  -7 -23.905 12.3151   1
  -7   2  -7 -1.4591 0.86368   3
   7  -2   7 0.82345 0.93604   2
   7  -2   7 0.72115 22.4769   1
  -8   2  -7 23.3441 18.0665   1
   8  -2   7 14.7202 1.95855   2
   8  -2   7 9.82717 19.3051   1
  -9   2  -7 34.4612 28.0767   1
   9  -2   7 13.9268 1.93412   2
   9  -2   7 5.33667 25.1588   1
 -10   2  -7 12.6931 2.09612   3
  10  -2   7 19.4245 2.47532   2
  10   1  -7 4.41418 32.4446   1
  10   1  -7 -0.2337 1.57146   2
 -10  -1   7 -0.1263 1.86076   3
   9   1  -7 16.7768 33.9515   1
   9   1  -7 7.97630 21.6237   1
   9   1  -7 8.27879 1.89169   2
  -9  -1   7 10.0565 2.24959   3
   8   1  -7 -5.3519 17.5727   1
   8   1  -7 23.4428 19.0326   1
   8   1  -7 10.7464 2.11155   2
  -8  -1   7 6.17790 1.91690   3
   7   1  -7 -1.5790 13.3507   1
   7   1  -7 -3.0638 13.6759   1
   7   1  -7 -1.1862 0.99175   2
  -7  -1   7 0.32626 1.36225   3
   6   1  -7 4.06752 1.11543   2
   6   1  -7 13.0567 11.1778   1
   6   1  -7 8.24846 10.7418   1
  -6  -1   7 0.33737 1.17950   3
  -6  -1   7 6.03890 1.13002   2
   5   1  -7 62.0845 3.06125   2
   5   1  -7 52.4972 20.1342   1
   5   1  -7 64.8192 12.9799   1
  -5  -1   7 62.8520 2.97346   2
  -5  -1   7 68.5319 3.36349   3
   4   1  -7 45.7048 10.5848   1
   4   1  -7 31.6713 2.03951   2
   4   1  -7 28.4261 8.91185   1
  -4  -1   7 31.6537 1.95018   2
  -4  -1   7 29.9460 2.10758   3
   3   1  -7 119.765 4.00184   2
  -3  -1   7 118.287 4.26668   3
  -3  -1   7 114.383 4.28240   2
   2   1  -7 28.5730 7.06348   1
   2   1  -7 46.0247 1.99138   2
  -2  -1   7 57.2060 8.46267   1
  -2  -1   7 47.1904 1.95805   2
  -2  -1   7 43.9653 2.17187   3
   1   1  -7 59.6894 8.65765   1
   1   1  -7 60.6734 2.24138   2
  -1  -1   7 57.2573 2.15132   2
  -1  -1   7 62.4793 2.41407   3
  -1  -1   7 49.6392 7.89559   1
   0   1  -7 1945.13 51.0397   2
   0  -1   7 1955.72 51.0217   2
   0  -1   7 2044.37 62.1622   1
   0  -1   7 1985.00 51.2023   3
  -1   1  -7 81.6771 10.1493   1
  -1   1  -7 82.1837 2.64809   2
   1  -1   7 79.2640 9.74707   1
   1  -1   7 78.0301 2.60253   2
  -2   1  -7 821.260 32.3998   1
   2  -1   7 811.476 21.5989   2
   2  -1   7 843.468 32.7534   1
  -3   1  -7 44.9834 8.65606   1
   3  -1   7 34.7087 1.73065   2
   3  -1   7 25.7834 7.03355   1
  -4   1  -7 116.344 14.2794   1
  -4   1  -7 97.6648 3.13762   3
   4  -1   7 95.4168 3.51046   2
   4  -1   7 124.835 13.3894   1
  -5   1  -7 9.28065 7.26324   1
  -5   1  -7 3.52414 0.81367   3
   5  -1   7 2.73640 0.98107   2
   5  -1   7 -4.2783 7.22930   1
  -6   1  -7 919.544 24.8335   3
  -6   1  -7 944.828 43.0790   1
   6  -1   7 930.441 25.2259   2
   6  -1   7 959.373 44.5455   1
  -7   1  -7 24.9465 1.86045   3
  -7   1  -7 21.8842 12.5651   1
   7  -1   7 29.4584 2.46457   2
   7  -1   7 19.0115 21.5373   1
  -8   1  -7 20.7620 17.3196   1
  -8   1  -7 24.4958 1.96376   3
   8  -1   7 25.4998 18.6975   1
   8  -1   7 28.7646 2.62512   2
  -9   1  -7 10.1871 35.6182   1
  -9   1  -7 22.7126 2.13771   3
   9  -1   7 15.8986 21.9112   1
   9  -1   7 18.1591 2.25264   2
  10  -1   7 -20.031 29.5983   1
  11  -1   7 16.2212 4.20839   2
  10   0  -7 -1.5110 1.77012   2
 -10   0   7 2.00126 1.95027   3
   9   0  -7 53.5295 25.4991   1
   9   0  -7 8.59315 46.2549   1
   9   0  -7 5.42420 1.80652   2
  -9   0   7 2.02087 1.80019   3
   8   0  -7 -29.139 20.3006   1
   8   0  -7 2.96514 1.50053   2
   8   0  -7 26.1695 18.1766   1
  -8   0   7 5.03734 1.78331   3
   7   0  -7 77.1093 19.1118   1
   7   0  -7 34.9940 2.96700   2
   7   0  -7 25.7970 17.0485   1
  -7   0   7 39.1193 3.22290   3
   6   0  -7 17.3097 11.6150   1
   6   0  -7 -1.3509 11.6746   1
   6   0  -7 18.2756 1.97956   2
  -6   0   7 19.7879 1.97989   2
  -6   0   7 15.6596 3.32499   3
   5   0  -7 3.72593 1.24118   2
   5   0  -7 10.4794 8.66838   1
   5   0  -7 -5.5498 8.54182   1
  -5   0   7 4.49537 1.07727   2
  -5   0   7 4.30034 1.50596   3
   4   0  -7 6.48587 1.17147   2
   4   0  -7 15.1045 8.11381   1
   4   0  -7 2.86942 7.61631   1
  -4   0   7 11.7236 1.68208   3
  -4   0   7 9.42667 1.17548   2
   3   0  -7 171.426 15.1825   1
   3   0  -7 174.289 5.49400   2
   3   0  -7 179.733 15.5143   1
  -3   0   7 168.464 5.39185   2
  -3   0   7 171.323 5.72914   3
   2   0  -7 268.257 7.63568   2
  -2   0   7 254.149 19.8709   1
  -2   0   7 274.234 7.91420   3
  -2   0   7 254.759 7.58462   2
   1   0  -7 224.621 6.53346   2
   1   0  -7 235.634 15.8077   1
  -1   0   7 226.638 6.67404   3
  -1   0   7 223.397 6.50417   2
  -1   0   7 234.563 15.4115   1
   0   0  -7 279.646 19.2576   1
   0   0  -7 291.623 8.03054   2
   0   0   7 290.690 8.02923   3
   0   0   7 287.080 8.01002   2
  -1   0  -7 401.890 19.8816   1
  -1   0  -7 419.657 11.0455   2
   1   0   7 400.263 10.9939   2
   1   0   7 401.573 10.8220   3
   1   0   7 412.249 19.8644   1
  -2   0  -7 148.220 11.4895   1
   2   0   7 135.684 11.4361   1
   2   0   7 129.027 4.07587   2
  -3   0  -7 87.5635 10.0732   1
   3   0   7 97.9281 3.23540   2
   3   0   7 81.3878 10.1752   1
  -4   0  -7 54.9119 9.34627   1
   4   0   7 29.7319 8.45000   1
   4   0   7 44.6228 2.15497   2
  -5   0  -7 7.43565 0.80285   3
  -5   0  -7 5.50184 7.02256   1
   5   0   7 5.76660 7.11793   1
   5   0   7 5.17737 1.14560   2
  -6   0  -7 4.30404 0.79384   3
  -6   0  -7 8.31791 8.78560   1
   6   0   7 4.44638 1.19155   2
   6   0   7 4.85065 9.77785   1
  -7   0  -7 -13.417 9.41717   1
  -7   0  -7 1.02609 0.75112   3
   7   0   7 0.02355 1.06515   2
  -8   0  -7 -3.6753 12.9832   1
  -8   0  -7 13.5940 1.49325   3
   8   0   7 15.4413 14.4404   1
   8   0   7 13.4138 1.79927   2
  -9   0  -7 -12.206 16.2422   1
  -9   0  -7 4.01697 1.11868   3
   9   0   7 -9.5324 18.1391   1
   9   0   7 2.17174 1.97699   2
 -10   0  -7 34.5427 2.49875   3
  10   0   7 3.11837 28.6154   1
  10   0   7 37.5879 3.23153   2
 -11   0  -7 -0.2795 1.21698   3
  11   0   7 -1.4691 1.59822   2
   9  -1  -7 6.43879 1.69636   2
   9  -1  -7 5.95936 29.9024   1
  -9   1   7 7.47314 2.41511   3
   8  -1  -7 -19.747 20.2339   1
   8  -1  -7 1.32278 1.48490   2
   8  -1  -7 -6.7742 23.3812   1
  -8   1   7 -1.3479 1.66098   3
   7  -1  -7 10.2409 19.5919   1
   7  -1  -7 4.35998 1.74573   2
   7  -1  -7 2.60444 14.7096   1
  -7   1   7 2.30710 1.63044   3
   6  -1  -7 -13.144 13.0271   1
   6  -1  -7 12.0104 12.4893   1
   5  -1  -7 11.9770 10.1395   1
   5  -1  -7 11.8361 1.50442   2
   5  -1  -7 18.7219 11.6773   1
  -5   1   7 13.8408 1.60804   2
  -5   1   7 13.8071 1.98143   3
   4  -1  -7 1.85398 1.02803   2
   4  -1  -7 6.67585 7.96650   1
   4  -1  -7 -6.5323 6.89867   1
  -4   1   7 2.92804 1.27360   3
  -4   1   7 0.71705 0.73868   2
   3  -1  -7 51.1123 2.53788   2
   3  -1  -7 38.7799 9.37773   1
   3  -1  -7 67.2646 11.1214   1
  -3   1   7 47.9007 2.57252   3
  -3   1   7 50.3544 2.38809   2
   2  -1  -7 29.7808 10.4090   1
   2  -1  -7 66.9417 10.1111   1
  -2   1   7 62.7506 2.64773   3
  -2   1   7 54.4497 2.42136   2
   1  -1  -7 118.931 11.8801   1
   1  -1  -7 124.754 4.10730   2
  -1   1   7 132.163 12.2135   1
  -1   1   7 125.621 4.19628   3
  -1   1   7 130.007 4.11781   2
   0  -1  -7 1192.17 31.7625   2
   0  -1  -7 1214.45 41.4769   1
   0   1   7 1254.12 31.7445   3
   0   1   7 1166.20 31.7312   2
   0   1   7 1262.74 42.1984   1
  -1  -1  -7 41.8978 1.92418   2
  -1  -1  -7 53.1051 7.70155   1
   1   1   7 41.0051 1.87054   2
   1   1   7 41.9894 1.58685   3
   1   1   7 39.4969 6.85137   1
  -2  -1  -7 428.400 19.6309   1
  -2  -1  -7 432.363 11.6722   2
   2   1   7 420.651 11.6162   2
   2   1   7 425.267 19.6174   1
  -3  -1  -7 140.471 11.0281   1
   3   1   7 130.824 4.23459   2
   3   1   7 137.649 11.7970   1
  -4  -1  -7 24.3254 6.15892   1
   4   1   7 28.5254 1.72845   2
   4   1   7 31.5623 6.80218   1
  -5  -1  -7 283.594 17.8775   1
   5   1   7 262.572 8.16549   2
   5   1   7 282.482 19.1242   1
  -6  -1  -7 298.535 21.1330   1
   6   1   7 312.076 21.5848   1
   6   1   7 299.643 9.09638   2
  -7  -1  -7 18.9215 9.79503   1
  -7  -1  -7 11.9624 1.18709   3
   7   1   7 10.7359 1.61250   2
  -8  -1  -7 272.581 26.0014   1
  -8  -1  -7 288.851 8.34719   3
   8   1   7 267.023 27.9733   1
   8   1   7 287.388 9.16070   2
  -9  -1  -7 23.8672 1.89095   3
  -9  -1  -7 -5.8643 15.5766   1
   9   1   7 20.3133 19.0017   1
   9   1   7 21.1402 2.30188   2
 -10  -1  -7 -6.5886 18.8016   1
 -10  -1  -7 5.58552 1.31452   3
  10   1   7 13.5614 22.2019   1
  10   1   7 0.52798 1.38306   2
 -11  -1  -7 0.45762 1.18900   3
  11   1   7 -0.5719 1.45344   2
   9  -2  -7 46.0973 57.4036   1
   9  -2  -7 -15.288 36.1465   1
   9  -2  -7 8.28708 2.41150   2
  -9   2   7 8.51413 2.49942   3
   8  -2  -7 54.5855 32.3236   1
   8  -2  -7 11.1819 1.84334   2
   8  -2  -7 31.4991 26.8105   1
  -8   2   7 15.4815 2.55013   3
   7  -2  -7 8.58309 20.8843   1
   7  -2  -7 2.80022 1.43600   2
  -7   2   7 2.44567 1.88921   3
   6  -2  -7 15.0848 13.7945   1
   6  -2  -7 -18.037 15.8160   1
   5  -2  -7 6.10455 10.0825   1
   5  -2  -7 13.2858 13.4820   1
   4  -2  -7 18.3685 9.17936   1
   4  -2  -7 16.2085 9.74007   1
   3  -2  -7 146.363 16.0533   1
   3  -2  -7 144.906 4.99454   2
   3  -2  -7 135.619 16.8623   1
  -3   2   7 146.557 5.23072   3
  -3   2   7 139.849 4.91205   2
   2  -2  -7 154.418 15.3247   1
   2  -2  -7 176.212 6.10291   2
   2  -2  -7 180.155 15.2284   1
  -2   2   7 184.114 5.68636   2
  -2   2   7 183.278 5.90341   3
   1  -2  -7 232.600 7.66888   2
   1  -2  -7 250.628 16.3843   1
   1  -2  -7 249.469 16.3375   1
  -1   2   7 237.007 7.14889   2
  -1   2   7 255.845 7.33376   3
   0  -2  -7 1050.24 27.4279   2
   0  -2  -7 1055.54 37.2637   1
   0   2   7 1018.87 27.3801   2
   0   2   7 1026.75 37.2783   1
   0   2   7 1052.61 27.3946   3
  -1  -2  -7 607.792 16.1740   2
  -1  -2  -7 611.747 24.3167   1
   1   2   7 596.287 16.1281   2
   1   2   7 587.383 24.4685   1
   1   2   7 599.273 15.9118   3
  -2  -2  -7 256.885 7.39234   2
  -2  -2  -7 249.793 13.8964   1
   2   2   7 262.676 7.38151   2
   2   2   7 265.473 14.3648   1
   2   2   7 249.438 6.88226   3
  -3  -2  -7 1785.28 54.8575   1
   3   2   7 1788.92 46.5647   2
   3   2   7 1798.34 55.8027   1
  -4  -2  -7 31.2191 6.09578   1
   4   2   7 26.1217 6.66867   1
   4   2   7 38.0015 1.97337   2
  -5  -2  -7 2.33867 5.19690   1
   5   2   7 3.46315 0.90556   2
   5   2   7 3.00072 5.06663   1
  -6  -2  -7 2.95222 6.26015   1
   6   2   7 -1.1980 6.34867   1
   6   2   7 2.18789 1.09125   2
  -7  -2  -7 114.377 16.5951   1
   7   2   7 153.178 21.6671   1
   7   2   7 138.890 5.15971   2
  -8  -2  -7 8.53755 10.4388   1
   8   2   7 9.93024 10.3750   1
   8   2   7 2.52804 1.30045   2
  -9  -2  -7 14.9675 13.6356   1
  -9  -2  -7 4.33477 1.09128   3
   9   2   7 2.90144 1.43535   2
   9   2   7 -1.8652 15.8335   1
 -10  -2  -7 -15.965 17.0004   1
 -10  -2  -7 4.18073 1.17683   3
  10   2   7 4.33285 1.60470   2
  10   2   7 -12.494 20.0451   1
 -11  -2  -7 -1.7018 1.03938   3
  11   2   7 0.01176 1.51111   2
 -12  -2  -7 5.38928 1.66347   3
  12   2   7 0.50550 1.75456   2
   8  -3  -7 -0.2909 1.60639   2
   8  -3  -7 -5.0453 37.9058   1
   8  -3  -7 -25.660 33.5484   1
  -8   3   7 -0.7929 1.33914   3
   7  -3  -7 2.53354 23.2959   1
   7  -3  -7 21.1742 2.58115   2
   7  -3  -7 38.8246 31.6206   1
  -7   3   7 17.9220 2.93164   3
   6  -3  -7 49.6434 17.3711   1
   6  -3  -7 56.8162 4.48594   2
   6  -3  -7 49.7665 22.1738   1
  -6   3   7 51.3950 3.73129   3
   5  -3  -7 -20.907 10.9650   1
   5  -3  -7 2.78100 1.23669   2
   5  -3  -7 0.61090 13.8604   1
  -5   3   7 3.10351 1.48402   3
   4  -3  -7 0.40580 1.07428   2
   4  -3  -7 5.61949 9.23256   1
   4  -3  -7 -12.919 9.96579   1
  -4   3   7 0.19015 1.17444   3
  -4   3   7 1.24361 0.94697   2
   3  -3  -7 96.4983 13.8464   1
   3  -3  -7 106.433 15.9148   1
   3  -3  -7 117.653 4.37596   2
  -3   3   7 110.531 4.27540   2
  -3   3   7 115.624 4.60680   3
   2  -3  -7 27.6420 8.66447   1
   2  -3  -7 31.2719 2.10212   2
   2  -3  -7 25.6718 8.35978   1
  -2   3   7 30.9228 2.11129   3
  -2   3   7 31.1174 2.00464   2
   1  -3  -7 28.7955 7.60002   1
   1  -3  -7 29.7000 7.67595   1
  -1   3   7 40.1777 2.13609   3
   0  -3  -7 129.084 11.1761   1
   0   3   7 155.428 13.2550   1
   0   3   7 139.771 4.52879   2
   0   3   7 134.366 4.47040   3
  -1  -3  -7 36.6313 1.98520   2
  -1  -3  -7 30.3455 6.15831   1
   1   3   7 39.9927 6.87877   1
   1   3   7 41.8622 1.79293   3
  -2  -3  -7 690.415 25.0804   1
  -2  -3  -7 677.880 18.2538   2
   2   3   7 673.610 17.8600   3
   2   3   7 668.793 25.7818   1
   2   3   7 681.372 18.5801   2
  -3  -3  -7 434.403 12.1443   2
  -3  -3  -7 436.846 18.1376   1
   3   3   7 434.151 19.1502   1
  -4  -3  -7 24.7863 5.36092   1
   4   3   7 24.7924 1.67722   2
   4   3   7 17.2146 5.48867   1
  -5  -3  -7 884.214 31.9435   1
   5   3   7 909.625 24.0124   2
   5   3   7 876.524 33.7781   1
  -6  -3  -7 174.659 13.6990   1
   6   3   7 144.115 5.22143   2
   6   3   7 151.579 14.5187   1
  -7  -3  -7 31.9410 10.5761   1
   7   3   7 25.2729 9.41812   1
   7   3   7 25.1940 2.30428   2
  -8  -3  -7 -1.0401 0.65819   3
  -8  -3  -7 -0.7621 8.50653   1
   8   3   7 -8.4085 10.3619   1
   8   3   7 -0.3878 1.05000   2
  -9  -3  -7 3.69541 1.05983   3
  -9  -3  -7 14.0552 12.2235   1
   9   3   7 7.95630 1.70284   2
   9   3   7 14.1335 14.0226   1
 -10  -3  -7 136.051 4.63374   3
 -10  -3  -7 107.521 19.3043   1
  10   3   7 100.106 22.8391   1
  10   3   7 130.239 5.68961   2
 -11  -3  -7 0.38607 1.14347   3
  11   3   7 -0.0927 1.54239   2
 -12  -3  -7 1.20046 1.28089   3
  12   3   7 -2.3209 1.87536   2
   8  -4  -7 40.9859 44.1355   1
   8  -4  -7 34.8420 5.55566   2
  -8   4   7 18.5167 2.86918   3
   7  -4  -7 1.58904 1.60115   2
   7  -4  -7 -9.7222 36.6365   1
   7  -4  -7 -13.955 26.4182   1
  -7   4   7 1.48555 1.54137   3
   6  -4  -7 24.4871 23.3757   1
   6  -4  -7 43.6503 19.6936   1
   6  -4  -7 49.3576 3.41371   2
  -6   4   7 35.2085 3.42261   3
   5  -4  -7 15.4052 15.4418   1
   5  -4  -7 2.40250 1.16690   2
   5  -4  -7 -10.365 12.8762   1
  -5   4   7 1.36724 1.56612   3
   4  -4  -7 27.7493 19.0793   1
   4  -4  -7 6.49567 1.49691   2
   4  -4  -7 10.4222 11.7341   1
  -4   4   7 10.0841 2.08941   3
   3  -4  -7 15.0673 10.8618   1
   3  -4  -7 32.5941 10.1350   1
   3  -4  -7 22.7600 2.20526   2
  -3   4   7 22.8232 2.28488   3
   2  -4  -7 103.174 4.07920   2
   2  -4  -7 77.1217 13.5752   1
   2  -4  -7 114.842 14.1561   1
  -2   4   7 105.650 4.31394   3
  -2   4   7 102.319 4.02042   2
   1  -4  -7 8.31275 6.96388   1
   1  -4  -7 13.6291 1.43148   2
   1  -4  -7 11.1728 8.05119   1
  -1   4   7 15.2441 1.68501   3
  -1   4   7 16.0672 1.53808   2
   0  -4  -7 14.5306 6.16372   1
   0  -4  -7 21.1014 5.86257   1
   0  -4  -7 28.4049 2.73634   2
   0   4   7 25.4020 1.75234   2
   0   4   7 23.8287 1.67892   3
  -1  -4  -7 123.109 10.2838   1
  -1  -4  -7 110.303 10.6516   1
  -1  -4  -7 134.635 4.37322   2
   1   4   7 126.333 4.19024   3
   1   4   7 125.007 4.25233   2
   1   4   7 136.904 11.2395   1
  -2  -4  -7 7.67435 3.74803   1
  -2  -4  -7 4.47314 0.98571   2
  -2  -4  -7 8.43744 4.43823   1
   2   4   7 4.04954 4.15862   1
   2   4   7 4.40863 0.89801   2
   2   4   7 7.52494 0.89725   3
  -3  -4  -7 46.6101 2.27964   2
  -3  -4  -7 45.3577 5.66437   1
   3   4   7 43.1832 2.13382   2
   3   4   7 45.2713 6.50081   1
  -4  -4  -7 41.8799 5.37626   1
   4   4   7 43.3391 6.55476   1
   4   4   7 46.0269 2.27738   2
  -5  -4  -7 170.962 10.4952   1
   5   4   7 188.782 13.0054   1
   5   4   7 175.339 5.74231   2
  -6  -4  -7 35.7904 6.48238   1
   6   4   7 36.9013 2.29858   2
   6   4   7 32.6243 7.80419   1
   6   4   7 36.4177 2.41604   2
  -7  -4  -7 25.4842 11.0847   1
   7   4   7 42.5843 2.73984   2
   7   4   7 40.5935 9.60705   1
  -8  -4  -7 -3.8175 7.23036   1
   8   4   7 -4.6948 9.13647   1
   8   4   7 2.52622 1.26983   2
  -9  -4  -7 33.3948 11.7512   1
   9   4   7 50.9714 14.7172   1
   9   4   7 52.2448 3.38237   2
 -10  -4  -7 1.61176 15.0852   1
  10   4   7 -16.568 16.2061   1
  10   4   7 5.67290 1.71802   2
  11   4   7 15.0291 2.31531   2
  12   4   7 1.32262 1.96630   2
   7  -5  -7 73.9854 66.0821   1
   7  -5  -7 21.9923 2.51929   2
  -7   5   7 18.8511 3.11203   3
   6  -5  -7 -10.702 26.9518   1
   6  -5  -7 39.2288 24.4763   1
   6  -5  -7 7.15341 1.69956   2
  -6   5   7 4.25349 2.05671   3
   5  -5  -7 20.0653 2.47586   2
   5  -5  -7 12.4228 17.9055   1
   5  -5  -7 68.2845 20.8133   1
  -5   5   7 18.2153 2.41090   3
   4  -5  -7 -6.4262 13.1483   1
   4  -5  -7 6.01591 1.54748   2
   4  -5  -7 -1.4592 11.9267   1
  -4   5   7 6.81219 1.89369   3
   3  -5  -7 9.68965 13.3219   1
   3  -5  -7 49.8065 12.3579   1
   3  -5  -7 46.3165 2.86644   2
  -3   5   7 36.9588 2.70624   2
  -3   5   7 45.1442 3.47605   3
   2  -5  -7 104.880 4.21430   2
   2  -5  -7 120.332 16.7881   1
   2  -5  -7 86.7718 14.1100   1
  -2   5   7 99.8099 4.42671   3
  -2   5   7 100.163 4.24787   2
   1  -5  -7 104.873 4.02687   2
   1  -5  -7 83.3612 12.1040   1
  -1   5   7 100.464 4.19159   3
  -1   5   7 102.630 3.95363   2
   0  -5  -7 239.632 7.38182   2
   0  -5  -7 245.885 16.6895   1
   0  -5  -7 248.617 17.5218   1
   0   5   7 230.791 7.30941   2
   0   5   7 240.438 7.53177   3
  -1  -5  -7 73.7513 9.66372   1
  -1  -5  -7 72.8376 3.05608   2
  -1  -5  -7 75.8902 9.11358   1
   1   5   7 76.1012 3.04804   3
   1   5   7 66.4785 2.94961   2
  -2  -5  -7 567.283 15.8564   2
  -2  -5  -7 576.361 23.5519   1
  -2  -5  -7 559.731 21.8529   1
   2   5   7 574.885 15.7732   2
   2   5   7 596.721 24.7667   1
  -3  -5  -7 7.32186 3.44755   1
  -3  -5  -7 4.04183 0.92304   2
  -3  -5  -7 4.64882 3.07320   1
   3   5   7 7.08471 1.10738   2
   3   5   7 8.48020 4.47784   1
  -4  -5  -7 36.9061 3.53069   1
  -4  -5  -7 38.3155 3.52048   1
   4   5   7 43.6550 2.28375   2
   4   5   7 40.6328 6.20615   1
   5   5   7 690.588 25.9168   1
   5   5   7 676.391 18.7169   2
   6   5   7 5.33417 5.42487   1
   6   5   7 2.46929 0.87645   2
   7   5   7 17.9976 7.72872   1
   7   5   7 33.9488 2.51054   2
   7   5   7 26.5836 2.51994   2
   8   5   7 39.6697 10.5832   1
   8   5   7 37.2692 2.76811   2
   9   5   7 16.8415 2.03339   2
   9   5   7 9.46902 11.1958   1
  10   5   7 11.8779 15.1439   1
  11   5   7 32.5605 3.12065   2
  12   5   7 93.5378 5.35426   2
   6  -6  -7 23.5131 34.5488   1
   6  -6  -7 15.2968 2.32111   2
  -6   6   7 16.4348 2.90198   3
   5  -6  -7 15.2862 23.9665   1
   5  -6  -7 34.7187 3.01146   2
  -5   6   7 31.8392 3.42541   3
   4  -6  -7 44.5007 3.51450   2
   4  -6  -7 7.47971 17.7614   1
  -4   6   7 37.2346 3.36821   3
   3  -6  -7 65.4495 15.8977   1
   3  -6  -7 72.9346 3.69318   2
   3  -6  -7 49.7421 14.7266   1
  -3   6   7 73.9994 4.14066   3
   2  -6  -7 19.4147 1.79363   2
   2  -6  -7 32.5391 12.2264   1
   2  -6  -7 24.1114 10.6887   1
  -2   6   7 23.6983 2.06571   2
  -2   6   7 17.1534 2.29527   3
   1  -6  -7 48.2631 11.5954   1
   1  -6  -7 31.6252 10.0253   1
   1  -6  -7 34.6128 2.50193   2
  -1   6   7 34.5063 2.59017   3
  -1   6   7 36.8155 2.39478   2
   0  -6  -7 300.210 20.0538   1
   0  -6  -7 320.939 20.9772   1
   0  -6  -7 323.443 9.54488   2
   0   6   7 322.672 9.79986   3
   0   6   7 310.727 9.46834   2
  -1  -6  -7 26.1448 6.37801   1
  -1  -6  -7 25.5468 2.01349   2
  -1  -6  -7 20.9406 8.49646   1
   1   6   7 24.9412 1.92916   3
   1   6   7 21.5022 1.88658   2
  -2  -6  -7 541.530 21.7683   1
  -2  -6  -7 533.540 14.7412   2
  -2  -6  -7 492.540 20.5824   1
   2   6   7 534.532 14.6978   2
  -3  -6  -7 140.573 4.79858   2
  -3  -6  -7 133.106 7.25561   1
  -3  -6  -7 130.885 7.45328   1
   3   6   7 133.967 4.69196   2
   4   6   7 283.085 8.49776   2
   4   6   7 278.681 14.5488   1
   5   6   7 102.534 3.93504   2
   5   6   7 94.2026 9.00717   1
   6   6   7 45.0365 2.60783   2
   7   6   7 -0.9870 0.79122   2
   7   6   7 -0.1848 1.04688   2
   7   6   7 2.32893 5.94362   1
   8   6   7 9.89640 8.24749   1
   9   6   7 -0.5411 1.23762   2
   9   6   7 4.20512 10.1811   1
  10   6   7 9.38039 13.6567   1
  11   6   7 25.0560 2.74871   2
  12   6   7 8.16279 2.09807   2
   6  -7  -7 7.07230 2.21098   2
  -6   7   7 5.20136 2.44225   3
   5  -7  -7 0.66822 30.0390   1
   5  -7  -7 -0.4338 1.36486   2
  -5   7   7 3.51124 2.11438   3
   4  -7  -7 -2.4402 18.3836   1
   4  -7  -7 -0.0041 22.2717   1
   4  -7  -7 7.36176 1.67899   2
   3  -7  -7 -4.7148 15.3431   1
   3  -7  -7 4.79361 15.8129   1
   3  -7  -7 -0.6303 1.00124   2
  -3   7   7 -1.1490 1.19995   3
   2  -7  -7 -5.9738 13.4225   1
   2  -7  -7 13.7871 12.1604   1
   2  -7  -7 8.92231 1.54845   2
  -2   7   7 3.90102 1.60397   3
   1  -7  -7 1.10760 1.05244   2
   1  -7  -7 0.59022 8.49658   1
   1  -7  -7 13.1774 10.8277   1
  -1   7   7 -0.6326 0.88296   2
  -1   7   7 -0.2025 1.02038   3
   0  -7  -7 2.70848 7.13746   1
   0  -7  -7 0.82806 0.92080   2
   0   7   7 0.22689 1.72815   2
   0   7   7 -0.4067 1.00391   3
  -1  -7  -7 26.7945 6.98921   1
  -1  -7  -7 23.0924 2.08138   2
  -1  -7  -7 21.3795 7.94476   1
   1   7   7 21.0743 1.96494   2
   1   7   7 21.9800 2.10176   3
  -2  -7  -7 166.632 12.3841   1
  -2  -7  -7 189.631 11.6877   1
  -2  -7  -7 176.676 5.93146   2
   2   7   7 173.160 5.85021   2
  -3  -7  -7 386.874 10.9932   2
   3   7   7 362.842 10.8979   2
   4   7   7 345.919 10.2063   2
   5   7   7 24.4684 6.59241   1
   5   7   7 27.9105 2.16129   2
   6   7   7 396.775 16.6321   1
   7   7   7 64.7202 3.31076   2
   7   7   7 71.2553 8.37816   1
   8   7   7 15.2869 1.85878   2
   8   7   7 24.4657 7.87102   1
   9   7   7 2.22869 9.24070   1
   9   7   7 2.91333 1.33729   2
  10   7   7 10.6260 12.5798   1
  11   7   7 13.9419 2.29809   2
  12   7   7 -2.8495 1.53160   2
   5  -8  -7 0.39799 1.48970   2
  -5   8   7 2.36282 2.32388   3
   4  -8  -7 17.6140 2.25308   2
   4  -8  -7 2.19635 25.1976   1
  -4   8   7 17.2274 3.04507   3
   3  -8  -7 4.22478 1.47695   2
   3  -8  -7 7.92210 19.8762   1
  -3   8   7 3.45777 1.82066   3
   2  -8  -7 42.4989 17.4217   1
   2  -8  -7 35.5515 2.82282   2
  -2   8   7 34.9679 3.24607   3
   1  -8  -7 8.55844 11.1707   1
   1  -8  -7 10.7667 1.59329   2
   1  -8  -7 -16.337 20.5093   1
  -1   8   7 9.56750 1.96869   3
   0  -8  -7 17.7844 10.6121   1
   0  -8  -7 14.7852 8.87360   1
   0  -8  -7 18.4037 2.01968   2
   0   8   7 15.0293 2.15554   3
   0   8   7 11.0670 1.58910   2
  -1  -8  -7 37.2274 2.46129   2
  -1  -8  -7 34.0599 9.41961   1
  -1  -8  -7 35.8947 8.25648   1
   1   8   7 30.8840 2.33277   2
   1   8   7 34.6801 2.71729   3
  -2  -8  -7 -1.0411 4.58935   1
  -2  -8  -7 0.28071 5.56892   1
  -2  -8  -7 0.64412 0.87127   2
   2   8   7 1.16791 0.98877   2
  -3  -8  -7 3.66099 1.11613   2
   3   8   7 0.37456 0.80829   2
   4   8   7 30.3596 2.22813   2
   5   8   7 10.5738 2.18078   2
   6   8   7 4.85394 1.17911   2
   7   8   7 106.779 7.74454   1
   8   8   7 130.801 5.31355   2
   8   8   7 121.230 10.7452   1
   9   8   7 58.0579 3.87597   2
   9   8   7 54.8654 9.85384   1
  10   8   7 58.2731 3.90718   2
  10   8   7 69.6387 13.6153   1
  11   8   7 9.91590 2.09491   2
  12   8   7 6.06225 1.99136   2
   4  -9  -7 16.8046 2.45380   2
  -4   9   7 15.4605 3.13713   3
   3  -9  -7 18.0536 27.6840   1
   2  -9  -7 4.65550 1.41953   2
  -2   9   7 -0.4723 1.48929   3
   1  -9  -7 12.1713 15.4581   1
   1  -9  -7 7.47055 14.2485   1
  -1   9   7 2.61061 1.70564   3
   0  -9  -7 2.34945 10.5536   1
   0  -9  -7 2.68446 1.23846   2
   0  -9  -7 0.08501 12.2086   1
   0   9   7 4.54619 1.54688   3
  -1  -9  -7 1.23943 1.03959   2
  -1  -9  -7 -3.1407 8.95040   1
  -1  -9  -7 -6.5181 7.72371   1
   1   9   7 0.15502 1.23418   3
  -2  -9  -7 15.2973 1.84055   2
  -2  -9  -7 10.7561 6.15141   1
  -2  -9  -7 6.25954 5.35255   1
   2   9   7 14.5092 1.61948   2
  -3  -9  -7 8.77344 1.43241   2
   3   9   7 7.38853 1.25410   2
   4   9   7 3.27453 1.00250   2
   5   9   7 0.01083 0.75607   2
   8   9   7 65.2389 3.69500   2
   9   9   7 5.87015 1.59108   2
  10   9   7 27.0516 8.68593   1
  10   9   7 20.7918 2.47281   2
  11   9   7 0.08206 1.37646   2
  12   9   7 29.6080 5.09322   2
  12   9   7 8.93266 24.3392   1
   3 -10  -7 8.79759 1.91215   2
  -3  10   7 8.96269 2.88948   3
   2 -10  -7 -0.2293 27.5660   1
   2 -10  -7 1.26031 1.33686   2
  -2  10   7 0.60043 1.93584   3
   1 -10  -7 19.9886 19.9533   1
   0 -10  -7 13.7923 15.0821   1
   0 -10  -7 -7.5521 12.3092   1
   0 -10  -7 1.49445 1.12875   2
   0  10   7 1.62632 1.46185   3
  -1 -10  -7 15.7240 11.3176   1
  -1 -10  -7 17.5241 2.06878   2
   1  10   7 20.3246 2.78929   3
  -2 -10  -7 13.4017 1.77454   2
  -2 -10  -7 12.4159 5.81407   1
  -2 -10  -7 2.87179 5.50954   1
  -3 -10  -7 24.2537 2.33535   2
   8  10   7 41.4358 3.30448   2
   9  10   7 1.71377 1.32567   2
  10  10   7 6.31455 1.68913   2
  11  10   7 -1.4235 1.40719   2
   1 -11  -7 -48.540 41.9575   1
   1 -11  -7 3.19554 1.43009   2
  -1  11   7 2.38527 2.07913   3
   0 -11  -7 14.1602 20.7268   1
  -1 -11  -7 -12.001 12.2818   1
  -1 -11  -7 -0.0335 1.21743   2
   1  11   7 1.76549 1.63179   3
  -2 -11  -7 17.4969 1.93665   2
  -3 -11  -7 72.1086 3.68861   2
   8  11   7 6.44189 1.66965   2
   9  11   7 1.07645 1.25453   2
  10  11   7 6.17858 1.56755   2
  11  11   7 3.67235 1.77634   2
   0 -12  -7 19.8856 2.30827   2
   0  12   7 26.1203 3.84667   3
  -1 -12  -7 81.9568 4.41364   2
   1  12   7 99.7551 5.73472   3
  -2 -12  -7 5.11930 1.49485   2
   2  12   7 9.60654 2.22795   3
  -3 -12  -7 19.1933 2.31638   2
   8  12   7 1.19093 1.16745   2
   9  12   7 6.85072 1.78252   2
  10  12   7 13.4325 2.01002   2
  -2 -13  -7 14.4682 2.15590   2
   2  13   7 13.0987 2.77586   3
   8  13   7 -0.7116 1.27764   2
   9  13   7 8.51826 1.69396   2
   7  12  -8 -4.5055 26.1264   1
   5  12  -8 38.7575 25.3118   1
   4  12  -8 -16.742 23.7989   1
   3  12  -8 12.4704 26.5294   1
  -3 -12   8 -3.0331 12.7066   1
   2  12  -8 0.74355 27.2693   1
  -2 -12   8 -6.4046 17.3177   1
  -1 -12   8 -8.6945 22.9173   1
   9  11  -8 4.51985 1.27273   2
   7  11  -8 1.09712 20.7817   1
   6  11  -8 46.0961 20.6381   1
   5  11  -8 22.6663 18.9184   1
   4  11  -8 0.98653 18.0245   1
   3  11  -8 34.4532 20.4530   1
   2  11  -8 13.9198 20.0516   1
  -2 -11   8 17.0879 14.1953   1
   1  11  -8 32.1441 22.6150   1
  -1 -11   8 37.0246 17.9170   1
   0  11  -8 4.63871 27.7340   1
   0 -11   8 55.3628 23.2131   1
  -1  11  -8 -21.718 37.3725   1
   1 -11   8 14.5142 29.2409   1
   9  10  -8 -12.531 25.5341   1
   9  10  -8 -2.4848 1.02774   2
   8  10  -8 18.5745 1.86880   2
   8  10  -8 24.3653 1.95356   2
   8  10  -8 14.9197 21.3922   1
   7  10  -8 -6.1240 17.8015   1
   6  10  -8 2.70767 16.1286   1
   5  10  -8 13.9513 14.9662   1
   4  10  -8 102.180 19.0798   1
  -4 -10   8 102.206 12.6352   1
   3  10  -8 149.067 25.2218   1
  -3 -10   8 154.680 16.9447   1
   2  10  -8 30.1492 16.4345   1
  -2 -10   8 -7.9142 11.6446   1
   1  10  -8 -1.0315 17.0141   1
  -1 -10   8 -7.1109 13.7274   1
   0  10  -8 -24.055 19.3535   1
   0 -10   8 -6.9119 15.4962   1
  -1  10  -8 39.9807 25.5903   1
  -2  10  -8 81.3758 32.5606   1
   2 -10   8 66.7180 29.0778   1
  10   9  -8 3.21572 1.35388   2
   9   9  -8 40.5948 24.0549   1
   9   9  -8 67.9990 3.34882   2
   8   9  -8 -19.878 17.9133   1
   8   9  -8 6.33520 1.24265   2
   7   9  -8 10.9474 15.7758   1
   6   9  -8 -14.733 13.2293   1
   5   9  -8 2.13437 12.4927   1
   4   9  -8 7.01957 14.3500   1
  -4  -9   8 -1.5166 7.72409   1
   3   9  -8 14.3285 12.7079   1
  -3  -9   8 24.5733 10.4257   1
   2   9  -8 5.94861 13.0078   1
  -2  -9   8 40.2533 11.7146   1
   1   9  -8 22.2023 15.8011   1
   0   9  -8 10.3526 15.2863   1
   0  -9   8 12.3359 13.3188   1
  -1   9  -8 5.08092 19.1721   1
   1  -9   8 0.88183 15.3601   1
  -2   9  -8 -6.0066 22.2980   1
  -3   9  -8 35.6903 26.1848   1
   3  -9   8 6.71455 23.6528   1
  -4   9  -8 4.22625 34.9071   1
  -4   9  -8 39.2368 3.73536   3
   4  -9   8 64.4128 40.7302   1
  -5   9  -8 3.56323 1.85636   3
   5  -9   8 -1.0926 1.26205   2
  10   8  -8 -1.2076 1.28939   2
   9   8  -8 -20.848 19.7515   1
   9   8  -8 -0.0155 1.01289   2
   8   8  -8 10.5617 1.43698   2
   8   8  -8 6.80736 16.1965   1
   8   8  -8 15.2397 27.5323   1
   7   8  -8 -9.5100 12.5568   1
   7   8  -8 0.25859 0.82252   2
   6   8  -8 62.1401 2.55652   2
   5   8  -8 34.1481 11.9322   1
   4   8  -8 -8.7022 9.15417   1
  -4  -8   8 -0.0979 7.14672   1
   3   8  -8 34.7743 11.5458   1
  -3  -8   8 21.3174 9.49185   1
   2   8  -8 20.8042 11.6319   1
  -2  -8   8 36.9200 10.6688   1
   1   8  -8 210.608 22.3144   1
  -1  -8   8 274.039 22.2407   1
   0   8  -8 46.1539 15.8001   1
   0  -8   8 27.8656 12.1082   1
  -1   8  -8 5.72010 14.7006   1
  -2   8  -8 27.2773 16.7431   1
   2  -8   8 -6.3172 14.8122   1
  -3   8  -8 -21.638 18.1115   1
   3  -8   8 8.38099 18.8240   1
  -4   8  -8 95.2602 29.8198   1
   4  -8   8 26.1332 25.1301   1
  -5   8  -8 38.6853 33.8581   1
  -5   8  -8 39.7199 3.54173   3
   5  -8   8 19.9119 33.9271   1
   5  -8   8 34.0959 2.19493   2
  -6   8  -8 12.6512 2.40818   3
   6  -8   8 16.6173 1.62582   2
  10   7  -8 -23.040 31.0367   1
  10   7  -8 1.30567 1.39378   2
 -10  -7   8 9.02879 2.72688   3
   9   7  -8 3.23480 1.28195   2
   9   7  -8 10.5344 21.3033   1
  -9  -7   8 3.52384 1.99505   3
   8   7  -8 27.3604 16.6531   1
   8   7  -8 36.7063 2.57311   2
   8   7  -8 13.9148 17.7761   1
  -8  -7   8 36.4844 3.43974   3
   7   7  -8 14.7176 12.5071   1
   7   7  -8 6.99565 1.23306   2
  -7  -7   8 9.37994 2.30493   3
   6   7  -8 13.2461 1.42378   2
   6   7  -8 11.1065 11.3197   1
   5   7  -8 7.53320 9.47517   1
   4   7  -8 48.5546 11.5370   1
  -4  -7   8 24.6971 9.35118   1
   3   7  -8 173.164 19.0910   1
   2   7  -8 54.3102 11.3301   1
  -2  -7   8 48.3032 10.5636   1
   1   7  -8 344.915 24.5471   1
  -1  -7   8 332.443 22.6687   1
   0   7  -8 16.4120 11.5901   1
   0  -7   8 8.60736 9.56619   1
  -1   7  -8 122.855 18.9266   1
   1  -7   8 146.030 18.6369   1
  -2   7  -8 11.7954 12.8938   1
   2  -7   8 6.92229 12.4657   1
  -3   7  -8 14.8505 16.4299   1
   3  -7   8 21.6204 14.6408   1
   3  -7   8 10.6611 1.04487   2
  -4   7  -8 20.7982 18.8010   1
   4  -7   8 5.48651 1.01771   2
   4  -7   8 -13.543 16.9324   1
  -5   7  -8 9.03089 2.02510   3
  -5   7  -8 10.2342 27.6327   1
   5  -7   8 6.02551 1.13332   2
   5  -7   8 -42.062 21.2703   1
  -6   7  -8 40.7915 33.9261   1
  -6   7  -8 49.4992 3.71112   3
   6  -7   8 42.8900 2.59080   2
   6  -7   8 16.3105 35.6246   1
  -7   7  -8 22.6148 62.2181   1
  -7   7  -8 12.3937 2.43658   3
   7  -7   8 10.2815 1.59585   2
  11   6  -8 39.4756 3.73374   2
 -11  -6   8 56.1465 4.89960   3
  10   6  -8 5.75374 26.1661   1
  10   6  -8 6.63903 1.73315   2
 -10  -6   8 5.04458 2.31381   3
   9   6  -8 1.89468 1.40346   2
   9   6  -8 0.42123 19.6635   1
  -9  -6   8 5.03017 2.23517   3
   8   6  -8 -4.5879 15.0127   1
   8   6  -8 2.06660 1.15060   2
   8   6  -8 18.0762 23.6975   1
  -8  -6   8 2.86471 1.74606   3
   7   6  -8 5.71322 13.5079   1
   7   6  -8 5.04388 1.24327   2
   7   6  -8 -16.556 12.2656   1
  -7  -6   8 12.0221 2.39424   3
  -7  -6   8 9.15249 1.29574   2
   6   6  -8 13.5931 10.4999   1
   5   6  -8 14.3957 8.69995   1
   5   6  -8 0.98552 0.79432   2
  -5  -6   8 1.84382 1.10929   3
  -5  -6   8 1.34656 0.80676   2
   4   6  -8 9.87014 8.63896   1
   4   6  -8 21.3185 1.31566   2
  -4  -6   8 15.7005 7.24998   1
   3   6  -8 -0.0332 6.87588   1
  -3  -6   8 -8.2729 5.57200   1
   2   6  -8 12.7007 8.58741   1
  -2  -6   8 11.0057 7.08196   1
   1   6  -8 21.3243 9.09345   1
  -1  -6   8 9.32209 6.74667   1
   0   6  -8 3.39483 8.19204   1
   0  -6   8 9.78213 10.3773   1
   1  -6   8 39.1506 10.7311   1
  -2   6  -8 6.83979 12.1324   1
   2  -6   8 -5.6747 10.3390   1
  -3   6  -8 125.803 20.3650   1
   3  -6   8 110.722 19.4313   1
   3  -6   8 129.674 4.00744   2
  -4   6  -8 30.1546 17.2508   1
   4  -6   8 18.1414 1.57134   2
   4  -6   8 18.8265 14.5530   1
  -5   6  -8 2.30464 1.33826   3
  -5   6  -8 -11.933 17.9675   1
   5  -6   8 -16.951 17.2130   1
   5  -6   8 0.69064 0.86694   2
  -6   6  -8 68.1497 3.88787   3
  -6   6  -8 78.4877 30.5086   1
   6  -6   8 60.9214 3.15346   2
   6  -6   8 61.3513 25.6069   1
  -7   6  -8 17.7368 2.41033   3
  -7   6  -8 30.9855 34.9313   1
   7  -6   8 -39.166 36.4896   1
   7  -6   8 25.4340 2.29954   2
  11   5  -8 -0.2605 1.71568   2
 -11  -5   8 2.33577 2.12413   3
  10   5  -8 0.45778 28.9437   1
  10   5  -8 28.4568 2.81340   2
 -10  -5   8 31.4840 3.72966   3
   9   5  -8 177.410 27.5910   1
   9   5  -8 216.916 8.17516   2
   9   5  -8 210.920 31.9923   1
  -9  -5   8 208.622 8.57636   3
   8   5  -8 10.9991 1.73909   2
   8   5  -8 -2.1459 13.4739   1
   8   5  -8 21.1076 15.1755   1
  -8  -5   8 14.1124 2.33113   3
   7   5  -8 60.0420 16.8953   1
   7   5  -8 36.2067 2.58614   2
   7   5  -8 36.3747 12.9649   1
  -7  -5   8 37.6506 3.12184   3
   6   5  -8 73.8426 3.26095   2
   6   5  -8 65.1969 12.7580   1
  -6  -5   8 74.8223 4.30651   3
  -6  -5   8 74.3909 3.14254   2
   5   5  -8 22.5965 9.14303   1
   5   5  -8 23.8846 1.86164   2
  -5  -5   8 25.6584 2.39313   3
  -5  -5   8 24.5339 1.67347   2
   4   5  -8 18.3373 8.58892   1
   4   5  -8 16.4582 1.38255   2
  -4  -5   8 4.96229 6.66877   1
  -4  -5   8 13.4310 1.88064   3
  -4  -5   8 11.8814 1.18651   2
   3   5  -8 22.8116 1.23761   2
   3   5  -8 31.9195 9.33875   1
  -3  -5   8 11.0727 6.07875   1
  -3  -5   8 24.3115 1.19224   2
   2   5  -8 4.72761 6.33244   1
  -2  -5   8 3.16908 5.37432   1
   1   5  -8 10.1916 7.65079   1
   0   5  -8 83.2665 12.7736   1
   0  -5   8 75.9036 12.1197   1
   1  -5   8 19.1399 9.19372   1
  -2   5  -8 61.7360 13.2130   1
   2  -5   8 52.3337 1.82788   2
   2  -5   8 48.1702 1.77793   2
   2  -5   8 37.6749 11.3250   1
  -3   5  -8 122.498 18.2497   1
   3  -5   8 137.120 4.28099   2
   3  -5   8 173.540 21.5112   1
  -4   5  -8 17.6775 13.4844   1
   4  -5   8 12.8627 1.31547   2
   4  -5   8 8.10915 12.5287   1
  -5   5  -8 26.5689 16.1804   1
  -5   5  -8 4.59236 1.31558   3
   5  -5   8 2.54113 1.01776   2
   5  -5   8 -3.0822 14.7430   1
  -6   5  -8 34.4685 20.9601   1
   6  -5   8 31.9331 21.3037   1
   6  -5   8 27.6660 2.20730   2
  -7   5  -8 34.6332 26.8965   1
   7  -5   8 8.87015 29.5153   1
  -8   5  -8 2.41689 1.58755   3
  -8   5  -8 33.3744 36.0169   1
   8  -5   8 5.40245 1.41280   2
   8  -5   8 -7.1107 41.5954   1
  10   4  -8 -9.3199 30.5870   1
  10   4  -8 0.59160 1.41969   2
 -10  -4   8 -2.5406 1.82127   3
   9   4  -8 53.8413 3.54722   2
   9   4  -8 26.3185 19.8046   1
   9   4  -8 58.7135 26.0408   1
  -9  -4   8 45.6789 4.04925   3
   8   4  -8 61.7214 19.1810   1
   8   4  -8 63.3650 3.60637   2
   8   4  -8 83.5138 18.1943   1
  -8  -4   8 61.4403 4.18562   3
   7   4  -8 10.3582 12.7989   1
   7   4  -8 5.90030 1.33687   2
   7   4  -8 19.2501 12.4865   1
  -7  -4   8 5.78500 1.19289   2
  -7  -4   8 7.12004 1.87746   3
   6   4  -8 86.8085 16.5694   1
   6   4  -8 77.5618 3.48566   2
   6   4  -8 71.4789 14.4760   1
  -6  -4   8 77.3005 3.39898   2
  -6  -4   8 87.7877 4.96568   3
   5   4  -8 185.591 5.96883   2
   5   4  -8 201.161 19.3510   1
  -5  -4   8 183.651 6.66734   3
  -5  -4   8 183.175 5.86245   2
   4   4  -8 79.1085 12.2641   1
   4   4  -8 85.8228 3.23345   2
  -4  -4   8 90.6889 3.20791   2
  -4  -4   8 92.2386 3.96245   3
   3   4  -8 -0.1113 0.55304   2
   3   4  -8 -5.9439 5.26058   1
  -3  -4   8 -0.3444 0.90528   3
  -3  -4   8 -0.1531 0.50078   2
   2   4  -8 -8.4443 4.72689   1
   2   4  -8 4.55871 0.57544   2
  -2  -4   8 11.2839 6.96129   1
  -2  -4   8 4.60570 0.55724   2
   1   4  -8 56.3281 10.1351   1
  -1  -4   8 42.6774 8.37969   1
   0   4  -8 23.6695 7.43413   1
   0  -4   8 18.5646 6.83902   1
  -1   4  -8 209.194 18.6138   1
   1  -4   8 242.706 18.8085   1
   1  -4   8 234.409 6.33699   2
   1  -4   8 244.990 6.35515   2
  -2   4  -8 208.859 19.0478   1
   2  -4   8 220.077 6.05189   2
   2  -4   8 216.438 6.05949   2
   2  -4   8 210.266 30.9628   1
  -3   4  -8 611.254 33.6291   1
   3  -4   8 588.989 16.0924   2
   3  -4   8 627.192 33.2696   1
  -4   4  -8 13.0036 10.9204   1
   4  -4   8 9.68980 11.8455   1
  -5   4  -8 -10.850 11.4796   1
  -5   4  -8 2.17394 1.04562   3
   5  -4   8 -4.3624 13.5317   1
   5  -4   8 0.93085 0.91521   2
  -6   4  -8 -11.504 17.4308   1
  -6   4  -8 4.51017 1.30614   3
   6  -4   8 -9.5874 16.4946   1
   6  -4   8 4.22690 1.17855   2
  -7   4  -8 21.2037 20.5175   1
   7  -4   8 4.07043 22.9622   1
  -8   4  -8 15.0872 51.7495   1
  -8   4  -8 72.0788 3.89701   3
   8  -4   8 75.2904 3.94927   2
   8  -4   8 70.9494 34.1473   1
  -9   4  -8 40.7729 3.22838   3
   9  -4   8 58.6725 50.2938   1
   9  -4   8 45.0951 3.35310   2
  10   3  -8 7.45981 1.93909   2
  10   3  -8 29.4517 29.6101   1
 -10  -3   8 5.07546 2.35933   3
   9   3  -8 -2.8051 20.1217   1
   9   3  -8 1.48154 1.38943   2
   9   3  -8 9.44320 23.1863   1
  -9  -3   8 1.29561 1.79735   3
   8   3  -8 59.0698 3.59584   2
   8   3  -8 37.7819 21.5320   1
   8   3  -8 61.4479 19.8396   1
  -8  -3   8 69.2874 4.30326   3
   7   3  -8 79.7332 18.8093   1
   7   3  -8 49.3409 3.05578   2
   7   3  -8 72.2866 20.7414   1
  -7  -3   8 54.5488 3.58252   3
   6   3  -8 -8.2568 9.31723   1
   6   3  -8 -0.2191 10.0686   1
   6   3  -8 2.00452 1.05934   2
  -6  -3   8 1.24403 1.33140   3
  -6  -3   8 1.23967 0.92590   2
   5   3  -8 30.2732 2.13428   2
   5   3  -8 22.2572 9.34515   1
  -5  -3   8 30.7838 2.02162   2
   4   3  -8 9.25673 7.31931   1
  -4  -3   8 9.37761 1.09383   2
  -4  -3   8 9.40394 1.54002   3
   3   3  -8 125.232 4.04405   2
   3   3  -8 140.312 14.5787   1
  -3  -3   8 122.679 4.61777   3
  -3  -3   8 125.449 4.01318   2
  -3  -3   8 139.716 13.0090   1
   2   3  -8 445.781 23.8187   1
   2   3  -8 426.890 11.5116   2
  -2  -3   8 423.198 11.5007   2
  -2  -3   8 438.015 12.2318   3
  -2  -3   8 408.305 21.8629   1
   1   3  -8 0.49413 0.41822   2
   1   3  -8 3.08030 5.11312   1
  -1  -3   8 -3.6568 4.83123   1
  -1  -3   8 -0.2720 0.35308   2
   0   3  -8 35.4147 8.44579   1
   0  -3   8 17.1175 6.79735   1
   0  -3   8 20.8478 0.96772   2
  -1   3  -8 671.251 30.6885   1
   1  -3   8 687.654 30.6728   1
   1  -3   8 686.835 17.7756   2
   1  -3   8 674.575 17.7559   2
  -2   3  -8 74.3532 11.4984   1
   2  -3   8 105.021 13.0110   1
   2  -3   8 84.8421 2.78159   2
   2  -3   8 88.2323 2.83622   2
  -3   3  -8 17.3164 8.55939   1
   3  -3   8 19.9212 1.41470   2
   3  -3   8 3.71541 7.28084   1
  -4   3  -8 120.734 17.4322   1
   4  -3   8 123.406 16.8523   1
  -5   3  -8 8.95084 11.3366   1
   5  -3   8 8.62503 11.9223   1
  -6   3  -8 39.7836 2.34413   3
  -6   3  -8 41.7459 14.8329   1
   6  -3   8 45.9237 15.1615   1
   6  -3   8 36.5019 2.45332   2
  -7   3  -8 3.24545 16.6048   1
  -7   3  -8 28.7481 2.28073   3
   7  -3   8 30.1947 19.3377   1
   7  -3   8 32.6614 2.55040   2
  -8   3  -8 3.14778 1.35302   3
  -8   3  -8 -26.489 21.5871   1
   8  -3   8 0.03064 1.19900   2
   8  -3   8 -1.2680 23.5252   1
  -9   3  -8 3.84108 1.46568   3
   9  -3   8 13.5108 34.0207   1
   9  -3   8 -0.8998 1.37690   2
  10   2  -8 3.55260 1.74264   2
  10   2  -8 -29.635 33.5255   1
 -10  -2   8 -0.6367 1.82039   3
   9   2  -8 19.8941 22.6706   1
   9   2  -8 4.51834 29.2751   1
   9   2  -8 12.1864 2.12299   2
  -9  -2   8 11.9786 2.70618   3
   8   2  -8 3.83202 20.9973   1
   8   2  -8 3.62939 2.01622   2
   8   2  -8 -10.627 15.6904   1
  -8  -2   8 1.80612 1.60759   3
   7   2  -8 20.6904 14.5386   1
   7   2  -8 10.8823 1.68677   2
   7   2  -8 22.6930 13.3113   1
  -7  -2   8 8.84394 1.83841   3
   6   2  -8 3.39231 1.16159   2
   6   2  -8 -8.5575 17.2551   1
  -6  -2   8 9.55090 2.44201   3
  -6  -2   8 2.28413 1.15245   2
   5   2  -8 10.9259 1.42582   2
   5   2  -8 16.1422 10.9341   1
   5   2  -8 1.64832 9.61532   1
  -5  -2   8 15.2226 1.49691   2
  -5  -2   8 16.9520 2.16825   3
   4   2  -8 92.4540 13.8156   1
   4   2  -8 89.8960 4.08466   2
  -4  -2   8 87.7039 3.80256   3
  -4  -2   8 85.0515 3.32201   2
   3   2  -8 206.316 16.4887   1
   3   2  -8 198.191 6.09636   2
  -3  -2   8 215.828 16.1143   1
  -3  -2   8 199.473 6.34553   2
  -3  -2   8 204.871 6.55954   3
   2   2  -8 16.1344 1.24685   2
   2   2  -8 5.25700 5.20146   1
  -2  -2   8 8.13382 6.14557   1
  -2  -2   8 14.1771 1.13136   2
  -2  -2   8 14.1897 1.41744   3
   1   2  -8 9.38532 5.35910   1
   1   2  -8 3.51285 0.64136   2
  -1  -2   8 3.01554 0.78641   3
  -1  -2   8 3.40790 0.59903   2
  -1  -2   8 3.15753 4.75984   1
   0   2  -8 484.076 27.5954   1
   0   2  -8 498.115 12.9780   2
   0  -2   8 492.756 23.6162   1
   0  -2   8 478.298 12.9264   2
   1  -2   8 385.678 24.6411   1
   1  -2   8 407.829 10.7656   2
  -2   2  -8 906.861 37.1762   1
   2  -2   8 886.601 23.4337   2
   2  -2   8 897.445 36.8567   1
   2  -2   8 894.477 23.4632   2
  -3   2  -8 950.499 40.0659   1
   3  -2   8 968.034 25.1979   2
   3  -2   8 948.883 25.1825   2
   3  -2   8 958.924 39.8146   1
  -4   2  -8 1443.78 53.9428   1
   4  -2   8 1417.54 53.6430   1
   4  -2   8 1286.51 36.3827   2
  -5   2  -8 348.307 10.2313   3
  -5   2  -8 388.808 26.3127   1
   5  -2   8 361.470 10.4528   2
   5  -2   8 393.099 26.6021   1
  -6   2  -8 48.6234 13.8600   1
  -6   2  -8 26.2216 1.84953   3
   6  -2   8 26.5328 2.23787   2
   6  -2   8 32.3741 13.3550   1
  -7   2  -8 80.0933 18.5319   1
  -7   2  -8 98.2206 3.87993   3
   7  -2   8 115.310 22.0909   1
   7  -2   8 99.9476 4.23946   2
  -8   2  -8 3.85205 18.7254   1
  -8   2  -8 16.6642 1.87329   3
   8  -2   8 23.9734 21.7636   1
   8  -2   8 15.0753 1.99936   2
  -9   2  -8 16.6015 25.9189   1
  -9   2  -8 21.6747 2.14107   3
   9  -2   8 17.8834 2.25566   2
   9  -2   8 29.9382 29.9049   1
 -10   2  -8 161.254 6.09937   3
  10  -2   8 167.883 6.86655   2
  10   1  -8 3.09497 2.60929   2
 -10  -1   8 -0.3970 1.80227   3
   9   1  -8 1.88589 1.70564   2
   9   1  -8 6.48460 25.0694   1
   9   1  -8 -2.6088 29.0248   1
  -9  -1   8 -0.7774 1.71186   3
   8   1  -8 11.2423 18.5536   1
   8   1  -8 -8.1753 22.3770   1
   8   1  -8 2.89973 1.47062   2
  -8  -1   8 0.57712 1.52499   3
   7   1  -8 1.69096 1.26530   2
   7   1  -8 -6.1170 13.5382   1
   7   1  -8 -23.945 15.9210   1
  -7  -1   8 4.16427 1.56967   3
   6   1  -8 -2.5482 0.87802   2
   6   1  -8 -10.670 10.9637   1
   6   1  -8 1.98799 10.3934   1
  -6  -1   8 -0.8259 0.84900   2
  -6  -1   8 0.31883 1.16646   3
   5   1  -8 2.01026 10.2410   1
   5   1  -8 13.1323 9.03289   1
   5   1  -8 11.7531 1.60298   2
  -5  -1   8 13.8796 1.51377   2
  -5  -1   8 14.4139 1.83279   3
   4   1  -8 60.0362 11.7775   1
   4   1  -8 48.4371 2.60792   2
   4   1  -8 46.7243 12.6576   1
  -4  -1   8 53.6798 2.86102   3
  -4  -1   8 50.5638 2.49744   2
   3   1  -8 103.906 13.0079   1
   3   1  -8 98.7243 3.72375   2
  -3  -1   8 103.023 3.62498   2
  -3  -1   8 106.752 4.04420   3
   2   1  -8 237.273 6.89223   2
   2   1  -8 220.240 16.4486   1
  -2  -1   8 238.894 6.85900   2
  -2  -1   8 233.365 7.19865   3
  -2  -1   8 252.922 16.9308   1
   1   1  -8 724.757 30.3083   1
   1   1  -8 701.392 18.9560   2
  -1  -1   8 770.973 30.6520   1
  -1  -1   8 717.180 19.2340   3
  -1  -1   8 692.237 18.9194   2
   0   1  -8 194.175 5.59392   2
   0   1  -8 180.897 16.9457   1
   0  -1   8 183.047 5.52746   2
   0  -1   8 205.372 17.0393   1
   0  -1   8 204.018 5.75416   3
  -1   1  -8 252.607 7.09156   2
  -1   1  -8 262.465 16.5255   1
   1  -1   8 250.028 7.05217   2
   1  -1   8 254.043 16.1641   1
  -2   1  -8 28.9676 7.27289   1
   2  -1   8 16.7247 6.48207   1
   2  -1   8 26.5936 1.43957   2
  -3   1  -8 687.604 31.1802   1
   3  -1   8 713.838 19.1633   2
   3  -1   8 733.606 31.8646   1
   3  -1   8 738.926 19.2296   2
  -4   1  -8 160.517 15.5178   1
  -4   1  -8 157.916 4.53515   3
   4  -1   8 147.402 5.38961   2
   4  -1   8 169.813 15.9284   1
  -5   1  -8 21.3748 1.30024   3
  -5   1  -8 37.0410 10.1542   1
   5  -1   8 24.3168 10.2462   1
   5  -1   8 18.4657 1.64023   2
  -6   1  -8 77.5934 3.21791   3
  -6   1  -8 71.7622 14.7828   1
   6  -1   8 74.7150 14.9868   1
   6  -1   8 81.3496 3.55746   2
  -7   1  -8 6.00830 13.1409   1
  -7   1  -8 27.7372 1.83652   3
   7  -1   8 31.7880 2.46442   2
   7  -1   8 26.8211 14.4546   1
  -8   1  -8 36.2592 17.7326   1
  -8   1  -8 9.21780 1.38586   3
   8  -1   8 6.27843 1.51093   2
   8  -1   8 -15.124 17.6176   1
  -9   1  -8 -7.1069 24.4686   1
   9  -1   8 -34.198 23.8500   1
 -10   1  -8 2.07475 1.31978   3
  10  -1   8 6.09701 1.75617   2
  10  -1   8 8.56761 36.6159   1
   9   0  -8 2.50130 1.63649   2
   9   0  -8 53.3382 54.7613   1
   9   0  -8 -3.8670 31.7201   1
  -9   0   8 0.91823 1.72423   3
   8   0  -8 1.67642 1.48378   2
   8   0  -8 15.8336 25.1641   1
   8   0  -8 4.72915 19.5583   1
   7   0  -8 -13.016 16.1956   1
   7   0  -8 -25.721 13.7224   1
   7   0  -8 5.59177 1.52494   2
  -7   0   8 7.33357 1.96257   3
   6   0  -8 25.6678 14.7196   1
   6   0  -8 27.5746 2.52023   2
   6   0  -8 24.2276 13.2891   1
  -6   0   8 21.7166 2.49595   3
   5   0  -8 39.6759 13.0694   1
   5   0  -8 46.2822 13.1446   1
   5   0  -8 56.6808 3.07222   2
  -5   0   8 50.0200 3.11490   3
   4   0  -8 7.00416 1.10319   2
   4   0  -8 3.85241 7.61662   1
   4   0  -8 2.14050 8.21088   1
  -4   0   8 4.03407 0.96123   2
  -4   0   8 6.99867 1.51185   3
   3   0  -8 181.922 17.0739   1
   3   0  -8 203.761 6.41231   2
   3   0  -8 213.227 17.4180   1
  -3   0   8 211.185 6.37656   2
   2   0  -8 2.67946 0.90540   2
   2   0  -8 4.02916 5.52747   1
  -2   0   8 4.92969 0.99674   3
  -2   0   8 2.85664 5.58275   1
  -2   0   8 4.24076 0.88368   2
   1   0  -8 158.421 13.5093   1
   1   0  -8 162.473 4.92521   2
  -1   0   8 165.646 13.4060   1
  -1   0   8 155.870 5.00722   3
  -1   0   8 159.356 4.89399   2
   0   0  -8 93.2698 10.5413   1
   0   0  -8 91.0916 3.20520   2
   0   0   8 101.185 3.23807   2
   0   0   8 95.7482 3.20156   3
   0   0   8 95.0428 10.4435   1
  -1   0  -8 341.736 18.3178   1
  -1   0  -8 341.509 9.32737   2
   1   0   8 321.962 18.1806   1
   1   0   8 334.000 9.28453   2
   1   0   8 337.918 9.11710   3
  -2   0  -8 29.8922 6.83356   1
   2   0   8 37.0460 1.74789   2
   2   0   8 32.8441 6.96001   1
  -3   0  -8 -0.0751 5.35819   1
   3   0   8 -8.5851 4.33160   1
   3   0   8 0.34765 0.53145   2
  -4   0  -8 12.8407 6.77763   1
   4   0   8 30.2970 7.85110   1
   4   0   8 26.1156 1.66351   2
  -5   0  -8 246.604 19.3581   1
   5   0   8 252.564 20.6468   1
   5   0   8 246.577 7.53343   2
  -6   0  -8 386.890 11.0858   3
  -6   0  -8 408.998 25.7173   1
   6   0   8 424.635 11.9761   2
   6   0   8 457.556 28.9533   1
  -7   0  -8 83.2240 15.3986   1
   7   0   8 56.5297 14.5898   1
   7   0   8 56.2867 3.19757   2
  -8   0  -8 89.2874 3.35376   3
  -8   0  -8 84.9131 19.1535   1
   8   0   8 78.8521 18.2480   1
   8   0   8 90.6419 4.19020   2
  -9   0  -8 -13.717 17.5077   1
  -9   0  -8 -1.1906 0.83696   3
   9   0   8 -8.9251 19.9470   1
   9   0   8 -4.7463 1.59424   2
 -10   0  -8 2.90085 1.17735   3
  10   0   8 -6.8415 25.2656   1
  10   0   8 5.61690 1.83456   2
 -11   0  -8 7.60782 2.09966   3
  11   0   8 1.52817 1.82394   2
   9  -1  -8 46.6075 34.8015   1
   9  -1  -8 -28.168 43.5623   1
   9  -1  -8 3.67324 1.74011   2
  -9   1   8 4.87805 2.29334   3
   8  -1  -8 2.02516 1.43455   2
   8  -1  -8 -16.370 24.9874   1
   8  -1  -8 22.8889 23.0366   1
  -8   1   8 1.07805 1.66116   3
   7  -1  -8 -3.5163 19.4265   1
   7  -1  -8 3.21135 15.8523   1
   7  -1  -8 0.71113 1.46124   2
  -7   1   8 -1.1867 1.04541   3
   6  -1  -8 22.6734 2.19243   2
   6  -1  -8 15.3381 16.3790   1
   6  -1  -8 39.5160 14.5032   1
  -6   1   8 26.0350 2.63246   3
   5  -1  -8 5.06739 1.17777   2
   5  -1  -8 5.11419 10.1224   1
   5  -1  -8 15.3849 12.4387   1
  -5   1   8 7.42098 1.42333   3
  -5   1   8 11.7371 1.47254   2
   4  -1  -8 16.7480 9.94543   1
   4  -1  -8 34.9000 2.45175   2
   4  -1  -8 19.8981 9.91051   1
  -4   1   8 32.8935 2.46663   3
  -4   1   8 37.2343 2.30855   2
   3  -1  -8 -0.1928 0.70893   2
   3  -1  -8 -7.0478 6.61676   1
   3  -1  -8 -2.5345 6.73784   1
  -3   1   8 0.92284 0.71967   2
  -3   1   8 -0.4922 0.75736   3
   2  -1  -8 5.40169 1.04392   2
   2  -1  -8 14.4738 6.93758   1
   2  -1  -8 5.15809 6.18127   1
  -2   1   8 7.97340 0.97468   2
  -2   1   8 6.82735 1.02318   3
   1  -1  -8 143.527 12.7554   1
   1  -1  -8 133.499 4.32470   2
  -1   1   8 143.016 12.7943   1
  -1   1   8 126.584 4.31575   3
  -1   1   8 125.602 4.56875   2
   0  -1  -8 235.393 15.1996   1
   0  -1  -8 222.958 6.65976   2
   0   1   8 228.024 6.63837   2
   0   1   8 228.677 15.4029   1
   0   1   8 228.138 6.60530   3
  -1  -1  -8 1884.62 61.1512   1
  -1  -1  -8 1983.51 50.8133   2
   1   1   8 1939.37 50.7605   2
   1   1   8 2073.70 62.4987   1
   1   1   8 1921.85 50.5114   3
  -2  -1  -8 26.5306 1.63029   2
  -2  -1  -8 26.8853 6.23546   1
   2   1   8 32.1909 6.77711   1
   2   1   8 29.1674 1.59654   2
  -3  -1  -8 639.648 26.7635   1
   3   1   8 610.480 16.6831   2
   3   1   8 614.038 26.9970   1
  -4  -1  -8 66.5724 9.98318   1
   4   1   8 60.4591 9.52272   1
   4   1   8 65.9550 2.68637   2
  -5  -1  -8 30.0514 8.31468   1
   5   1   8 44.5642 10.2248   1
   5   1   8 30.1180 2.06494   2
  -6  -1  -8 0.78340 7.67848   1
   6   1   8 -0.0784 8.10193   1
   6   1   8 5.52799 1.18516   2
  -7  -1  -8 45.5308 12.2252   1
   7   1   8 51.8118 13.7895   1
   7   1   8 47.7822 2.94498   2
  -8  -1  -8 62.4325 15.8558   1
   8   1   8 60.1876 3.49195   2
   8   1   8 65.1892 15.6187   1
  -9  -1  -8 2.62582 15.8832   1
  -9  -1  -8 5.71331 1.13891   3
   9   1   8 12.0848 18.2102   1
   9   1   8 7.39491 1.60331   2
 -10  -1  -8 11.2017 26.8208   1
  10   1   8 39.4293 24.7008   1
 -11  -1  -8 2.00052 1.19221   3
  11   1   8 4.80487 1.91311   2
   9  -2  -8 3.43556 1.71597   2
   9  -2  -8 -79.352 51.4131   1
  -9   2   8 -0.8339 1.82124   3
   8  -2  -8 -18.657 26.7625   1
   8  -2  -8 -35.810 30.5209   1
   7  -2  -8 1.92926 23.3124   1
   7  -2  -8 4.36170 18.9403   1
  -7   2   8 0.05955 1.17636   3
   6  -2  -8 7.48106 14.3455   1
   6  -2  -8 24.3616 16.6712   1
   6  -2  -8 3.49337 1.46344   2
  -6   2   8 1.80016 1.33305   3
   5  -2  -8 10.0191 10.6929   1
   5  -2  -8 -2.3651 12.0559   1
   5  -2  -8 -0.3376 1.08302   2
  -5   2   8 -0.6231 1.32151   3
   4  -2  -8 26.4803 11.8473   1
   4  -2  -8 29.3805 10.5175   1
   4  -2  -8 41.2789 2.66533   2
  -4   2   8 33.0915 2.77399   2
  -4   2   8 33.2286 2.59723   3
   3  -2  -8 39.8554 9.76303   1
   3  -2  -8 36.6663 2.38453   2
   3  -2  -8 14.3950 9.03924   1
  -3   2   8 37.2138 2.47227   3
  -3   2   8 41.2162 2.32823   2
   2  -2  -8 228.791 17.6444   1
   2  -2  -8 200.017 17.1539   1
   2  -2  -8 197.135 6.36752   2
  -2   2   8 205.626 6.36375   2
  -2   2   8 200.663 6.56456   3
   1  -2  -8 8.33372 5.69611   1
   1  -2  -8 2.80453 0.81739   2
   1  -2  -8 2.72847 5.40373   1
  -1   2   8 1.38027 0.71766   3
  -1   2   8 3.13952 5.34078   1
  -1   2   8 2.85300 0.80000   2
   0  -2  -8 215.227 6.74995   2
   0  -2  -8 239.493 15.3030   1
   0   2   8 215.036 6.51044   2
   0   2   8 217.745 15.0732   1
  -1  -2  -8 16.1118 5.40213   1
  -1  -2  -8 26.6265 1.69388   2
   1   2   8 28.1479 1.37615   3
   1   2   8 22.8176 6.49316   1
   1   2   8 26.3357 1.86594   2
  -2  -2  -8 247.697 14.8317   1
  -2  -2  -8 251.856 7.30272   2
   2   2   8 254.840 6.76063   3
   2   2   8 233.278 14.5370   1
   2   2   8 246.254 7.30500   2
  -3  -2  -8 150.313 11.7159   1
   3   2   8 152.071 12.0510   1
   3   2   8 146.242 4.74992   2
  -4  -2  -8 139.364 12.0970   1
   4   2   8 148.361 4.80447   2
   4   2   8 148.360 12.3837   1
  -5  -2  -8 441.053 22.4740   1
   5   2   8 425.613 23.5340   1
   5   2   8 448.991 12.5134   2
  -6  -2  -8 36.1725 8.68285   1
   6   2   8 20.8840 8.26558   1
   6   2   8 22.4310 2.10489   2
  -7  -2  -8 26.9799 9.76754   1
   7   2   8 10.6273 1.61905   2
   7   2   8 15.2892 9.24004   1
  -8  -2  -8 3.37212 10.6477   1
   8   2   8 -4.7813 10.5007   1
  -9  -2  -8 -6.4833 13.9997   1
  -9  -2  -8 8.62083 1.13977   3
   9   2   8 7.28640 1.67552   2
   9   2   8 17.4164 15.7578   1
 -10  -2  -8 34.1064 20.0095   1
  10   2   8 10.1993 20.7357   1
  10   2   8 18.4603 2.36922   2
 -11  -2  -8 2.54456 1.11107   3
  11   2   8 2.12852 1.77046   2
  12   2   8 9.82389 2.06183   2
   8  -3  -8 -9.7670 37.6858   1
   7  -3  -8 25.5281 23.7281   1
   7  -3  -8 19.8916 26.6009   1
   6  -3  -8 5.23089 1.59050   2
   6  -3  -8 24.4177 18.7174   1
   6  -3  -8 10.5830 18.9663   1
  -6   3   8 9.19450 2.38821   3
   5  -3  -8 19.7072 15.3460   1
   5  -3  -8 7.07103 1.57870   2
  -5   3   8 6.87115 1.65307   3
   4  -3  -8 20.9311 2.11836   2
   4  -3  -8 32.5372 11.0488   1
   4  -3  -8 24.9157 12.2820   1
  -4   3   8 29.2228 3.82862   3
  -4   3   8 18.6184 2.20773   2
   3  -3  -8 97.9429 15.6540   1
   3  -3  -8 106.019 4.26641   2
   3  -3  -8 105.128 15.8943   1
  -3   3   8 107.388 4.16161   2
  -3   3   8 99.7957 4.40586   3
   2  -3  -8 128.165 15.9670   1
   2  -3  -8 133.305 15.5781   1
   2  -3  -8 122.752 4.52496   2
  -2   3   8 125.161 4.73156   3
  -2   3   8 124.442 4.50115   2
   1  -3  -8 58.0144 10.0207   1
   1  -3  -8 67.3728 10.8675   1
   1  -3  -8 64.4333 2.88260   2
  -1   3   8 62.0561 2.91786   3
  -1   3   8 81.6500 3.37459   2
   0  -3  -8 276.410 9.08892   2
   0  -3  -8 262.030 21.9372   1
   0  -3  -8 303.921 17.4835   1
   0   3   8 303.602 8.61075   2
   0   3   8 319.784 19.3194   1
   0   3   8 296.895 8.57578   3
  -1  -3  -8 851.742 22.9323   2
  -1  -3  -8 870.146 32.3629   1
   1   3   8 866.711 22.6731   3
   1   3   8 827.733 32.8545   1
  -2  -3  -8 31.8777 5.88676   1
   2   3   8 18.9026 6.07944   1
   2   3   8 18.9446 1.51277   2
   2   3   8 21.5299 1.16881   3
  -3  -3  -8 580.771 15.7082   2
  -3  -3  -8 561.352 22.8429   1
   3   3   8 572.268 15.6518   2
   3   3   8 574.783 24.2322   1
  -4  -3  -8 59.7790 7.86842   1
   4   3   8 69.5499 9.10107   1
   4   3   8 68.9039 2.83317   2
  -5  -3  -8 3.15703 5.03814   1
   5   3   8 9.38368 6.29403   1
   5   3   8 6.51591 1.17237   2
  -6  -3  -8 8.11226 6.12662   1
   6   3   8 2.49748 1.05904   2
   6   3   8 2.12918 0.96575   2
   6   3   8 -4.0735 6.34989   1
  -7  -3  -8 19.8135 8.08659   1
   7   3   8 25.7298 9.78062   1
   7   3   8 29.4025 2.44614   2
  -8  -3  -8 5.35375 9.06729   1
   8   3   8 18.0773 11.4087   1
   8   3   8 17.6186 1.97234   2
  -9  -3  -8 149.181 18.2973   1
   9   3   8 148.057 5.95279   2
   9   3   8 149.118 20.3759   1
 -10  -3  -8 15.4031 15.9554   1
  10   3   8 36.7066 19.9490   1
  10   3   8 11.4920 1.96716   2
  11   3   8 0.81383 1.63317   2
  12   3   8 -1.3079 3.17203   2
   8  -4  -8 3.21681 1.84686   2
  -8   4   8 -1.8179 1.89489   3
   7  -4  -8 7.40110 35.1867   1
   7  -4  -8 42.8891 3.73635   2
  -7   4   8 43.0606 4.04095   3
   6  -4  -8 24.5036 23.2712   1
   6  -4  -8 3.54384 1.62094   2
   6  -4  -8 -17.212 22.2367   1
  -6   4   8 8.33664 2.17504   3
   5  -4  -8 -16.912 14.2239   1
   5  -4  -8 2.80929 1.48612   2
   5  -4  -8 17.7372 16.9595   1
  -5   4   8 2.62423 1.45418   3
   4  -4  -8 2.19299 11.9294   1
   4  -4  -8 -11.830 11.9499   1
   4  -4  -8 0.70612 1.19950   2
  -4   4   8 1.75907 1.41467   3
   3  -4  -8 83.7229 3.83640   2
   3  -4  -8 81.8729 20.4998   1
   3  -4  -8 78.5888 14.9514   1
  -3   4   8 91.4352 4.20256   3
  -3   4   8 80.8470 3.67241   2
   2  -4  -8 505.228 14.0538   2
   2  -4  -8 510.226 29.1192   1
   2  -4  -8 491.679 28.0488   1
  -2   4   8 466.436 14.2595   3
  -2   4   8 488.787 13.9908   2
   1  -4  -8 116.249 13.2631   1
   1  -4  -8 125.812 15.3009   1
   1  -4  -8 116.294 4.45805   2
  -1   4   8 146.431 4.99253   2
  -1   4   8 114.113 4.56018   3
   0  -4  -8 112.660 12.3255   1
   0   4   8 127.137 4.31800   2
   0   4   8 115.160 4.25805   3
  -1  -4  -8 147.526 4.88925   2
  -1  -4  -8 139.394 12.4584   1
  -1  -4  -8 138.751 11.7888   1
   1   4   8 144.310 4.72516   3
   1   4   8 145.694 4.83525   2
   1   4   8 150.419 12.6965   1
  -2  -4  -8 53.2698 7.73145   1
  -2  -4  -8 58.1807 7.60473   1
   2   4   8 58.1916 8.39749   1
   2   4   8 66.4503 2.73344   2
   2   4   8 63.1778 2.42126   3
  -3  -4  -8 228.088 7.06913   2
  -3  -4  -8 232.080 12.7110   1
   3   4   8 228.802 6.38997   3
   3   4   8 209.933 13.7445   1
  -4  -4  -8 27.9755 5.39779   1
   4   4   8 33.6977 6.57367   1
   4   4   8 30.9239 1.92994   2
  -5  -4  -8 42.5205 6.33369   1
   5   4   8 32.9475 2.13419   2
   5   4   8 33.8074 6.96698   1
  -6  -4  -8 13.9065 5.68698   1
   6   4   8 15.4192 7.07858   1
   6   4   8 19.0651 1.85250   2
  -7  -4  -8 64.2173 9.46629   1
   7   4   8 67.0933 3.33777   2
   7   4   8 88.0588 12.6448   1
   7   4   8 69.8499 3.48659   2
  -8  -4  -8 17.7482 8.19793   1
   8   4   8 10.6134 1.64306   2
   8   4   8 -1.5293 9.11631   1
  -9  -4  -8 -6.8468 10.1281   1
   9   4   8 12.6297 1.87229   2
   9   4   8 20.3742 12.9979   1
 -10  -4  -8 60.5864 15.9221   1
  10   4   8 41.9070 19.0765   1
  10   4   8 89.1552 4.60457   2
  11   4   8 -0.1049 1.50508   2
  12   4   8 20.3828 3.37374   2
   7  -5  -8 -10.388 40.7319   1
   7  -5  -8 0.18898 1.57382   2
  -7   5   8 1.62117 2.19552   3
   6  -5  -8 13.3427 28.0517   1
   6  -5  -8 13.5725 28.9010   1
   6  -5  -8 11.7560 2.28208   2
  -6   5   8 24.0115 3.60472   3
   5  -5  -8 39.7059 20.5305   1
   5  -5  -8 33.8555 3.08728   2
   5  -5  -8 37.7501 20.0685   1
  -5   5   8 32.8669 3.35213   3
   4  -5  -8 -0.5750 14.8752   1
   4  -5  -8 5.82607 14.3633   1
   4  -5  -8 5.50839 1.44984   2
  -4   5   8 5.57167 1.68149   3
   3  -5  -8 11.8508 11.0207   1
   3  -5  -8 6.55547 1.36526   2
   3  -5  -8 7.04701 12.6391   1
  -3   5   8 5.99968 1.68966   3
   2  -5  -8 93.8610 3.97752   2
   2  -5  -8 78.3236 13.9352   1
   2  -5  -8 68.6731 15.0771   1
  -2   5   8 90.2637 3.82737   2
  -2   5   8 85.7807 4.13800   3
   1  -5  -8 173.995 17.7251   1
   1  -5  -8 165.256 5.73401   2
  -1   5   8 162.119 5.91067   3
  -1   5   8 166.086 5.70325   2
   0  -5  -8 3.49624 5.86042   1
   0  -5  -8 18.3114 1.70644   2
   0  -5  -8 8.87973 7.66041   1
   0   5   8 15.6641 1.70820   3
   0   5   8 16.3634 1.52639   2
  -1  -5  -8 17.8547 6.77829   1
  -1  -5  -8 24.8588 1.89852   2
  -1  -5  -8 15.1184 5.73442   1
   1   5   8 21.9512 1.77577   2
   1   5   8 21.2398 1.71378   3
  -2  -5  -8 388.560 20.1788   1
  -2  -5  -8 448.077 19.5161   1
   2   5   8 406.335 11.9614   2
   2   5   8 428.477 11.8349   3
   2   5   8 445.778 21.5566   1
  -3  -5  -8 567.649 21.5578   1
  -3  -5  -8 560.645 15.5057   2
  -3  -5  -8 548.076 21.0744   1
   3   5   8 547.370 15.4348   2
   3   5   8 571.881 24.0036   1
  -4  -5  -8 -1.4858 3.20733   1
  -4  -5  -8 -0.1399 3.28676   1
   4   5   8 -2.9531 4.21646   1
   4   5   8 -0.5777 0.63435   2
  -5  -5  -8 64.2445 6.04751   1
   5   5   8 67.2213 3.04631   2
   5   5   8 61.7952 8.65047   1
  -6  -5  -8 23.4438 4.11664   1
   6   5   8 20.4704 1.98329   2
  -7  -5  -8 -2.3544 7.63919   1
   7   5   8 1.88047 0.94903   2
   7   5   8 1.95760 7.19000   1
   7   5   8 1.98547 1.20931   2
  -8  -5  -8 16.1527 6.40917   1
   8   5   8 15.7065 1.83064   2
   8   5   8 18.1205 9.64285   1
   9   5   8 5.84152 11.5247   1
   9   5   8 4.70895 1.53682   2
  10   5   8 11.4543 15.3978   1
  10   5   8 4.80806 1.58881   2
  11   5   8 54.1986 4.01152   2
  12   5   8 8.60598 2.34170   2
   6  -6  -8 -23.471 39.2831   1
   6  -6  -8 10.5563 2.14195   2
  -6   6   8 7.66509 2.32136   3
   5  -6  -8 7.99397 26.1574   1
   5  -6  -8 29.8355 23.7808   1
   4  -6  -8 1.67002 1.25459   2
   4  -6  -8 -4.8062 17.7313   1
   4  -6  -8 29.9496 35.2637   1
  -4   6   8 0.73260 1.43106   3
   3  -6  -8 4.67930 1.47612   2
   3  -6  -8 4.62292 13.3197   1
   3  -6  -8 15.1309 14.4883   1
  -3   6   8 2.88304 1.43395   3
   2  -6  -8 21.6062 11.6734   1
   2  -6  -8 23.8273 2.28722   2
   2  -6  -8 6.45765 9.97731   1
  -2   6   8 18.8289 2.36193   3
   1  -6  -8 -6.6745 9.11485   1
   1  -6  -8 5.40534 8.00128   1
   1  -6  -8 -0.8256 0.94229   2
  -1   6   8 0.49672 1.20626   3
  -1   6   8 -0.7755 0.82021   2
   0  -6  -8 432.315 25.3241   1
   0  -6  -8 431.120 27.4931   1
   0  -6  -8 458.097 12.8689   2
   0   6   8 432.553 12.7935   2
   0   6   8 447.477 13.1316   3
  -1  -6  -8 0.13063 5.09704   1
  -1  -6  -8 1.62254 1.01222   2
   1   6   8 1.23543 0.91440   2
   1   6   8 1.94145 1.12726   3
  -2  -6  -8 342.346 17.3374   1
  -2  -6  -8 337.342 16.6290   1
  -2  -6  -8 325.714 9.68708   2
   2   6   8 322.908 9.61326   2
   2   6   8 309.811 9.55689   3
  -3  -6  -8 105.389 8.90937   1
  -3  -6  -8 94.4601 8.13222   1
  -3  -6  -8 106.846 4.13177   2
   3   6   8 117.562 11.6789   1
   3   6   8 109.491 4.09505   2
   4   6   8 1856.30 49.5444   2
   4   6   8 1925.44 58.3762   1
   5   6   8 0.31013 4.77565   1
   5   6   8 0.80187 0.91664   2
   6   6   8 9.57770 1.66003   2
   6   6   8 8.04091 5.85893   1
   7   6   8 17.8831 7.30090   1
   7   6   8 34.2320 2.45832   2
   8   6   8 2.66458 1.33027   2
   8   6   8 2.14757 8.45906   1
   9   6   8 1.50278 10.3481   1
   9   6   8 1.63622 1.27725   2
  10   6   8 38.5574 14.7639   1
  10   6   8 17.3049 2.25853   2
  11   6   8 37.2700 3.71049   2
  12   6   8 2.11221 1.72807   2
   5  -7  -8 26.4056 30.8483   1
   4  -7  -8 1.75889 23.3193   1
   4  -7  -8 29.9552 2.85452   2
   4  -7  -8 38.8030 23.9268   1
  -4   7   8 20.9750 2.87156   3
   3  -7  -8 2.87170 1.58207   2
   3  -7  -8 -19.425 19.0492   1
   3  -7  -8 -6.3853 16.3279   1
  -3   7   8 -0.6620 1.45405   3
   2  -7  -8 2.67343 1.26446   2
   2  -7  -8 -34.730 14.6674   1
   2  -7  -8 -5.3853 13.1177   1
  -2   7   8 3.59023 1.54452   3
   1  -7  -8 21.5896 12.4125   1
   1  -7  -8 22.4291 2.17822   2
   1  -7  -8 15.3346 10.6109   1
  -1   7   8 20.1881 2.35571   3
   0  -7  -8 -7.7404 7.40918   1
   0  -7  -8 0.63126 0.98707   2
   0   7   8 2.44872 1.40830   3
   0   7   8 3.96828 1.13090   2
  -1  -7  -8 22.8780 8.61335   1
  -1  -7  -8 32.3478 2.38488   2
  -1  -7  -8 24.1467 7.68955   1
   1   7   8 27.9521 2.30245   3
  -2  -7  -8 11.8822 1.57474   2
  -2  -7  -8 6.96243 6.10996   1
  -2  -7  -8 7.15541 5.17270   1
   2   7   8 14.6405 1.78551   3
   2   7   8 12.1062 1.45002   2
  -3  -7  -8 -2.5792 3.28382   1
  -3  -7  -8 1.52790 3.33502   1
  -3  -7  -8 2.41090 1.07651   2
   3   7   8 4.02960 1.04770   2
  -4  -7  -8 95.4905 4.07435   2
   4   7   8 96.4019 3.94752   2
   5   7   8 652.619 24.2322   1
   5   7   8 568.512 17.0362   2
   6   7   8 31.5936 6.55688   1
   6   7   8 28.8548 2.36067   2
   7   7   8 1.07929 5.94312   1
   8   7   8 66.9677 3.69882   2
   8   7   8 54.9769 10.0737   1
   9   7   8 6.87000 9.94135   1
   9   7   8 9.17063 2.10765   2
  10   7   8 5.77639 1.62702   2
  10   7   8 -0.8513 13.9303   1
  11   7   8 14.9314 2.29105   2
  12   7   8 26.6962 3.06903   2
   4  -8  -8 -29.868 30.4671   1
   4  -8  -8 3.53702 1.52375   2
  -4   8   8 1.80566 1.89416   3
   3  -8  -8 15.6338 2.12993   2
  -3   8   8 13.9946 2.79377   3
   2  -8  -8 37.7620 15.8864   1
   2  -8  -8 15.1906 16.8320   1
  -2   8   8 34.3161 3.22116   3
   1  -8  -8 51.7782 14.4642   1
   1  -8  -8 32.0334 2.64393   2
  -1   8   8 31.8017 3.04293   3
   0  -8  -8 19.5824 1.96896   2
   0  -8  -8 20.3792 12.1061   1
   0  -8  -8 11.5511 9.48363   1
   0   8   8 24.9642 2.83322   3
  -1  -8  -8 0.82437 8.79417   1
  -1  -8  -8 13.2877 7.62475   1
  -1  -8  -8 10.0432 1.50528   2
   1   8   8 6.36583 1.29527   2
   1   8   8 9.63764 1.79351   3
  -2  -8  -8 161.255 5.71502   2
  -2  -8  -8 149.186 13.1983   1
  -2  -8  -8 154.328 12.3115   1
   2   8   8 155.712 5.61306   2
   2   8   8 156.606 5.87066   3
  -3  -8  -8 2.85938 1.01544   2
   3   8   8 4.41753 1.10784   2
  -4  -8  -8 38.9853 2.69959   2
   4   8   8 43.8024 2.56860   2
   5   8   8 34.9040 2.40557   2
   6   8   8 349.513 11.0079   2
   7   8   8 74.9717 9.32047   1
   8   8   8 7.90910 1.64199   2
   8   8   8 14.4531 6.58204   1
   9   8   8 20.1110 10.2998   1
   9   8   8 12.2475 2.04385   2
  10   8   8 79.2524 4.50843   2
  11   8   8 5.76943 1.70659   2
  12   8   8 4.64478 3.78508   2
   3  -9  -8 1.40992 1.43380   2
   3  -9  -8 21.2664 31.8782   1
  -3   9   8 5.57036 2.39246   3
   2  -9  -8 30.4667 2.88744   2
  -2   9   8 30.1144 3.82225   3
   1  -9  -8 34.4750 3.05077   2
   1  -9  -8 35.8093 17.7744   1
   1  -9  -8 21.2482 16.3432   1
  -1   9   8 34.5212 3.33922   3
   0  -9  -8 6.25365 1.55196   2
   0  -9  -8 1.54006 12.4949   1
   0   9   8 11.2426 2.29339   3
  -1  -9  -8 12.5411 1.73641   2
  -1  -9  -8 9.46356 10.3181   1
  -1  -9  -8 6.40877 8.77848   1
   1   9   8 8.75597 1.96042   3
  -2  -9  -8 87.2428 3.99194   2
  -2  -9  -8 79.1389 9.22878   1
  -2  -9  -8 81.7740 9.95040   1
   2   9   8 82.7085 4.18423   3
  -3  -9  -8 7.06818 1.38354   2
  -4  -9  -8 16.8605 1.83990   2
   8   9   8 19.2435 2.17686   2
   9   9   8 12.0324 1.90416   2
  10   9   8 33.1858 3.19791   2
  11   9   8 23.1669 2.79019   2
  12   9   8 -2.0219 1.66509   2
   2 -10  -8 30.9283 3.14755   2
   2 -10  -8 45.2458 30.5069   1
  -2  10   8 33.6244 4.18472   3
   1 -10  -8 -1.6366 22.0757   1
   0 -10  -8 5.93535 1.42524   2
   0 -10  -8 -2.2800 15.8432   1
   0  10   8 2.51872 1.77137   3
  -1 -10  -8 16.8983 12.7014   1
  -1 -10  -8 -4.5884 10.2703   1
  -1 -10  -8 8.45418 1.68796   2
   1  10   8 8.11637 1.77958   3
  -2 -10  -8 94.5799 4.35198   2
  -2 -10  -8 98.9891 11.4574   1
  -2 -10  -8 99.8710 11.0277   1
   2  10   8 93.7395 4.83474   3
  -3 -10  -8 0.93586 1.08856   2
   8  10   8 9.80033 1.80723   2
   9  10   8 1.10838 1.44179   2
  10  10   8 5.57906 1.66627   2
  11  10   8 -2.0550 1.57765   2
   1 -11  -8 36.2345 3.08250   2
  -1  11   8 35.3240 4.31737   3
   0 -11  -8 -16.902 20.6644   1
   0  11   8 14.8939 2.65055   3
  -1 -11  -8 -0.4670 13.7661   1
  -1 -11  -8 1.32603 1.15237   2
   1  11   8 4.03426 1.87903   3
  -2 -11  -8 4.71304 1.66125   2
   2  11   8 9.92483 2.39293   3
  -3 -11  -8 13.2954 1.83440   2
   8  11   8 5.31479 1.58826   2
   9  11   8 23.5317 2.51784   2
  10  11   8 21.8412 2.50751   2
  11  11   8 4.02181 1.94626   2
  -1 -12  -8 2.99059 1.49918   2
   1  12   8 4.81589 2.20409   3
  -2 -12  -8 -0.1739 1.21459   2
   2  12   8 -0.4230 1.50713   3
  -3 -12  -8 4.92103 1.43719   2
   3  12   8 3.53652 1.97894   3
   8  12   8 10.1012 1.79529   2
   9  12   8 5.68645 1.69516   2
  10  12   8 0.41632 1.65407   2
   3  13   8 16.7900 2.79244   3
   8  13   8 14.0685 2.13742   2
   5  12  -9 -0.2135 28.3151   1
   4  12  -9 31.5100 27.6581   1
   3  12  -9 -23.788 28.4256   1
  -3 -12   9 23.5872 15.6772   1
  -2 -12   9 33.2995 21.2359   1
  -1 -12   9 23.6723 28.5935   1
   7  11  -9 -4.0903 24.5292   1
   6  11  -9 -0.9151 22.7228   1
   5  11  -9 -5.8701 21.2153   1
   4  11  -9 7.22991 19.8788   1
  -4 -11   9 23.1391 11.3796   1
   3  11  -9 -27.312 22.6598   1
   2  11  -9 9.89774 22.8143   1
  -2 -11   9 17.3336 16.1408   1
   1  11  -9 -13.064 25.2550   1
  -1 -11   9 -32.730 18.8487   1
   0  11  -9 -8.6324 28.6386   1
   0 -11   9 46.0030 24.5823   1
   9  10  -9 19.4450 1.74369   2
   8  10  -9 13.2994 1.33413   2
   8  10  -9 6.10683 23.7709   1
   7  10  -9 -18.658 20.6578   1
   6  10  -9 4.33811 18.2125   1
   5  10  -9 14.7092 16.2398   1
   4  10  -9 13.9273 17.2338   1
  -4 -10   9 70.3853 12.3981   1
   3  10  -9 15.0316 15.9580   1
  -3 -10   9 10.1897 11.9905   1
   2  10  -9 8.53103 17.1704   1
  -2 -10   9 10.2109 13.6230   1
   1  10  -9 52.7802 22.2115   1
  -1 -10   9 42.2124 16.4131   1
   0  10  -9 9.45965 22.9830   1
   1 -10   9 14.7265 24.2212   1
  -2  10  -9 -29.756 32.6262   1
   2 -10   9 38.8690 28.2738   1
  10   9  -9 5.77411 1.54419   2
   9   9  -9 19.9054 25.2305   1
   8   9  -9 0.41513 1.02767   2
   8   9  -9 2.70414 20.8027   1
   7   9  -9 15.7943 16.7383   1
   6   9  -9 -19.952 15.1180   1
   4   9  -9 21.9252 13.2748   1
  -4  -9   9 5.55617 9.64017   1
   3   9  -9 320.574 28.3909   1
  -3  -9   9 295.467 23.9639   1
   2   9  -9 -13.730 13.2321   1
  -2  -9   9 14.4856 11.4708   1
   1   9  -9 95.2278 19.0725   1
  -1  -9   9 75.8435 18.9293   1
   0   9  -9 10.2635 15.8895   1
   0  -9   9 16.5231 14.9367   1
  -1   9  -9 23.2396 23.8132   1
   1  -9   9 42.9630 18.2938   1
  -2   9  -9 -6.5396 21.7944   1
  -3   9  -9 29.0554 31.5603   1
   3  -9   9 30.2452 25.9101   1
  -4   9  -9 -7.0656 36.6757   1
  10   8  -9 2.39416 1.44234   2
   9   8  -9 38.8052 24.7723   1
   9   8  -9 36.1869 2.70114   2
   8   8  -9 2.11075 22.2672   1
   7   8  -9 49.5353 2.57075   2
   7   8  -9 61.7691 20.0900   1
   6   8  -9 -2.1266 12.9672   1
   5   8  -9 33.9982 14.3244   1
   4   8  -9 62.8966 14.7881   1
  -4  -8   9 76.2076 12.3421   1
   3   8  -9 -12.673 10.0723   1
  -3  -8   9 4.99265 9.31233   1
   2   8  -9 101.579 15.9284   1
   1   8  -9 11.3964 12.7101   1
  -1  -8   9 22.6339 11.7825   1
   0   8  -9 0.25644 12.1556   1
   0  -8   9 2.02362 10.8397   1
  -1   8  -9 -0.8176 17.4491   1
  -2   8  -9 11.7728 19.5755   1
   2  -8   9 -8.9806 16.1961   1
  -3   8  -9 11.3710 22.6944   1
   3  -8   9 -7.1939 20.5107   1
  -4   8  -9 -22.665 24.8642   1
   4  -8   9 56.1748 27.3592   1
  -5   8  -9 31.5370 3.24808   3
  -5   8  -9 34.1422 36.0444   1
   5  -8   9 26.1899 1.87062   2
   5  -8   9 -70.237 37.5013   1
  10   7  -9 0.12044 1.34329   2
 -10  -7   9 1.95090 2.10427   3
   9   7  -9 16.5996 21.6584   1
   8   7  -9 2.63893 18.1834   1
   8   7  -9 0.45252 0.99072   2
   8   7  -9 5.44102 19.6531   1
  -8  -7   9 1.01012 1.84124   3
   7   7  -9 27.7250 15.2445   1
   7   7  -9 16.8022 1.67580   2
  -7  -7   9 17.0153 2.81455   3
   6   7  -9 9.90549 12.5407   1
   5   7  -9 -2.5959 10.5359   1
   4   7  -9 11.8386 9.96762   1
  -4  -7   9 5.15805 13.5288   1
   3   7  -9 37.2405 11.2735   1
  -3  -7   9 51.7731 11.0776   1
   2   7  -9 126.374 17.7872   1
  -2  -7   9 140.614 17.2806   1
   1   7  -9 -4.5408 9.21150   1
  -1  -7   9 3.48117 8.82176   1
   0   7  -9 -0.3975 9.84959   1
  -1   7  -9 13.1384 12.2719   1
   1  -7   9 18.0068 11.0581   1
  -2   7  -9 29.5045 15.7928   1
   2  -7   9 54.7787 14.3641   1
  -3   7  -9 14.5799 18.1593   1
   3  -7   9 19.6143 28.8158   1
  -4   7  -9 51.7467 21.7798   1
   4  -7   9 59.4719 22.7273   1
  -5   7  -9 25.4111 40.8962   1
  -5   7  -9 31.2818 2.94873   3
   5  -7   9 30.7569 2.01701   2
   5  -7   9 -32.591 23.8055   1
  -6   7  -9 14.3791 36.5945   1
   6  -7   9 53.3483 37.9567   1
  10   6  -9 3.20116 1.58635   2
 -10  -6   9 -0.1352 1.91304   3
   9   6  -9 -9.1571 22.3625   1
   9   6  -9 30.2579 3.11190   2
  -9  -6   9 27.8946 3.37936   3
   8   6  -9 29.0976 2.56632   2
   8   6  -9 59.8765 20.4228   1
   8   6  -9 14.1219 18.8406   1
  -8  -6   9 31.1131 3.31505   3
   7   6  -9 17.8552 12.7704   1
   7   6  -9 25.0790 15.3947   1
   6   6  -9 19.2191 1.88077   2
   6   6  -9 21.9091 12.2549   1
  -6  -6   9 15.7225 2.31874   3
  -6  -6   9 17.3969 1.59983   2
   5   6  -9 15.0761 1.35340   2
   5   6  -9 12.0371 10.4157   1
  -5  -6   9 17.8267 2.48923   3
  -5  -6   9 17.5127 1.73575   2
   4   6  -9 13.6962 9.61932   1
   4   6  -9 11.8259 1.00877   2
  -4  -6   9 10.8432 7.86191   1
   3   6  -9 5.52208 8.66207   1
  -3  -6   9 -8.8290 6.57422   1
   2   6  -9 2.27333 7.86728   1
  -2  -6   9 3.52567 7.10701   1
   1   6  -9 91.1517 14.0348   1
   0   6  -9 272.293 23.0185   1
   0  -6   9 313.169 22.2674   1
  -1   6  -9 14.5313 10.8820   1
   1  -6   9 -15.644 9.01935   1
  -2   6  -9 55.4858 15.0162   1
   2  -6   9 62.9913 13.9712   1
  -3   6  -9 13.6505 15.0300   1
   3  -6   9 5.36664 0.74559   2
   3  -6   9 6.23996 0.75907   2
   3  -6   9 0.25435 12.2060   1
  -4   6  -9 10.6645 15.6163   1
   4  -6   9 15.2601 16.7466   1
  -5   6  -9 0.27087 1.30711   3
  -5   6  -9 -26.073 21.0897   1
   5  -6   9 -12.035 18.8681   1
   5  -6   9 0.18588 0.83502   2
  -6   6  -9 57.2735 28.6112   1
  -6   6  -9 60.4236 3.60655   3
   6  -6   9 48.2965 30.6726   1
   6  -6   9 54.9652 2.89948   2
  -7   6  -9 79.6797 38.8054   1
  -7   6  -9 6.22674 1.84819   3
   7  -6   9 -32.919 39.7196   1
   7  -6   9 7.49799 1.42034   2
  10   5  -9 3.42637 1.69239   2
 -10  -5   9 3.35452 2.20299   3
   9   5  -9 -32.623 22.6443   1
   9   5  -9 1.19394 1.38385   2
  -9  -5   9 3.53069 2.30921   3
   8   5  -9 62.7897 34.3707   1
   8   5  -9 27.3793 16.6602   1
   8   5  -9 42.2606 2.96519   2
  -8  -5   9 40.2202 3.56820   3
   7   5  -9 18.5587 14.3728   1
   7   5  -9 13.1773 15.8075   1
   7   5  -9 18.2536 1.83592   2
  -7  -5   9 16.2766 1.64994   2
  -7  -5   9 14.0901 2.21330   3
   6   5  -9 151.273 20.3152   1
   6   5  -9 151.519 5.18384   2
  -6  -5   9 144.376 6.07003   3
  -6  -5   9 144.994 5.04320   2
   5   5  -9 221.815 7.42734   2
   5   5  -9 245.523 21.4386   1
  -5  -5   9 230.037 6.98184   2
  -5  -5   9 242.415 8.17427   3
   4   5  -9 46.5395 10.8231   1
   4   5  -9 58.3155 2.38750   2
  -4  -5   9 57.2789 2.30936   2
  -4  -5   9 56.6788 3.28066   3
  -4  -5   9 51.1347 10.1666   1
   3   5  -9 25.9981 9.48329   1
   3   5  -9 27.5749 1.38447   2
  -3  -5   9 25.6738 1.30103   2
  -3  -5   9 22.3015 7.97778   1
   2   5  -9 8.46902 7.30686   1
   1   5  -9 4.33376 7.83959   1
  -1  -5   9 27.2335 9.09337   1
   0   5  -9 -1.9162 7.03542   1
   0  -5   9 -0.5858 6.72761   1
  -1   5  -9 94.4378 18.2871   1
   1  -5   9 87.7652 13.7131   1
  -2   5  -9 86.5978 14.8679   1
   2  -5   9 72.6694 19.1747   1
   2  -5   9 83.5626 2.60537   2
   2  -5   9 83.6749 2.59104   2
  -3   5  -9 9.84898 10.8571   1
   3  -5   9 12.4285 1.21322   2
   3  -5   9 24.2659 12.5177   1
   3  -5   9 11.7095 1.13515   2
  -4   5  -9 14.8216 13.3988   1
   4  -5   9 25.7998 13.2504   1
  -5   5  -9 23.5374 2.15349   3
  -5   5  -9 12.3292 17.5767   1
   5  -5   9 36.1850 18.2147   1
   5  -5   9 22.7052 1.84192   2
  -6   5  -9 13.6032 3.12195   3
  -6   5  -9 36.0768 20.9414   1
   6  -5   9 42.2487 24.0747   1
   6  -5   9 15.0815 1.67272   2
  -7   5  -9 54.3489 3.38024   3
  -7   5  -9 70.8540 32.2929   1
   7  -5   9 54.6926 3.11168   2
   7  -5   9 37.5577 31.3500   1
  -8   5  -9 -3.2433 39.9720   1
  -8   5  -9 3.40959 1.63943   3
   8  -5   9 2.66435 1.25052   2
   8  -5   9 13.1969 38.6729   1
  10   4  -9 6.82464 1.86204   2
 -10  -4   9 6.77553 2.41397   3
   9   4  -9 6.94996 1.73425   2
   9   4  -9 18.0188 38.5327   1
   9   4  -9 -5.1177 27.3830   1
  -9  -4   9 11.6234 2.58105   3
   8   4  -9 33.0971 18.4152   1
   8   4  -9 13.2742 20.3129   1
   8   4  -9 3.98391 1.45335   2
  -8  -4   9 9.01391 2.18584   3
   7   4  -9 104.650 19.4920   1
   7   4  -9 93.7655 3.99832   2
   7   4  -9 75.0394 17.5403   1
  -7  -4   9 84.2223 4.59168   3
  -7  -4   9 77.4385 3.95994   2
   6   4  -9 1.79681 1.09269   2
   6   4  -9 5.44758 12.5934   1
   6   4  -9 -4.3152 9.70260   1
  -6  -4   9 -0.8833 0.77788   2
  -6  -4   9 0.87352 1.36979   3
   5   4  -9 49.3497 2.61616   2
   5   4  -9 46.4265 12.7599   1
  -5  -4   9 50.1753 2.46216   2
  -5  -4   9 47.7868 3.12075   3
   4   4  -9 518.141 29.8051   1
   4   4  -9 527.341 14.5817   2
  -4  -4   9 537.244 14.5700   2
  -4  -4   9 535.411 15.5016   3
   3   4  -9 30.1134 9.47095   1
   3   4  -9 32.8379 1.71444   2
  -3  -4   9 19.1291 8.66563   1
  -3  -4   9 37.3149 1.68508   2
  -3  -4   9 31.1944 2.27818   3
   2   4  -9 46.5807 10.1829   1
   2   4  -9 41.1248 1.62122   2
  -2  -4   9 39.4705 9.28895   1
  -2  -4   9 37.9421 1.55951   2
   1   4  -9 27.1388 8.29643   1
   1   4  -9 35.5833 1.31250   2
  -1  -4   9 29.6137 8.56288   1
  -1  -4   9 36.5549 1.30009   2
   0  -4   9 30.1168 8.64045   1
   1  -4   9 218.948 5.95173   2
   1  -4   9 232.966 18.4484   1
   1  -4   9 218.028 5.95508   2
  -2   4  -9 363.484 25.9813   1
   2  -4   9 362.520 9.67834   2
   2  -4   9 330.585 23.4190   1
   2  -4   9 362.567 9.68236   2
  -3   4  -9 5.77884 9.69613   1
   3  -4   9 11.8009 1.08319   2
   3  -4   9 8.79239 9.48367   1
   3  -4   9 12.0599 1.07065   2
  -4   4  -9 -5.1536 10.2968   1
   4  -4   9 7.25106 10.1356   1
  -5   4  -9 8.87052 1.41106   3
  -5   4  -9 2.56982 14.2993   1
   5  -4   9 7.63307 1.20628   2
   5  -4   9 2.20889 12.9500   1
  -6   4  -9 3.60842 1.23530   3
  -6   4  -9 -4.9561 15.4965   1
   6  -4   9 3.97791 1.16668   2
   6  -4   9 9.89522 16.7089   1
  -7   4  -9 58.9529 25.6487   1
  -7   4  -9 57.3219 3.18746   3
   7  -4   9 57.8361 3.27238   2
   7  -4   9 42.7250 24.4287   1
  -8   4  -9 34.7152 2.80100   3
  -8   4  -9 15.1626 46.6630   1
   8  -4   9 15.9904 34.1794   1
   8  -4   9 37.3329 2.87997   2
  -9   4  -9 2.60978 1.52977   3
   9  -4   9 -37.694 48.8762   1
   9  -4   9 2.38175 1.45977   2
  10   3  -9 -3.2991 1.60739   2
 -10  -3   9 0.65890 1.86344   3
   9   3  -9 23.3542 29.4793   1
   9   3  -9 -0.5355 23.5741   1
   9   3  -9 6.12997 1.83166   2
  -9  -3   9 2.59868 1.89558   3
   8   3  -9 13.9694 19.5757   1
   8   3  -9 7.81829 18.8419   1
   7   3  -9 -1.1666 1.07624   2
   7   3  -9 17.8689 14.5393   1
   7   3  -9 0.24449 13.5032   1
  -7  -3   9 3.28145 1.59182   3
   6   3  -9 39.3222 2.71675   2
   6   3  -9 31.5634 14.5918   1
  -6  -3   9 41.9568 3.05812   3
   5   3  -9 44.7399 12.6440   1
   5   3  -9 15.5727 1.60608   2
  -5  -3   9 21.0514 1.78013   2
  -5  -3   9 17.6521 2.19455   3
   4   3  -9 222.156 19.9898   1
   4   3  -9 244.186 7.60631   2
  -4  -3   9 238.929 7.21173   2
  -4  -3   9 244.963 7.99812   3
   3   3  -9 73.8745 11.8681   1
   3   3  -9 66.8807 2.68223   2
  -3  -3   9 74.5694 11.5371   1
  -3  -3   9 66.4122 2.62784   2
  -3  -3   9 65.3935 3.19200   3
   2   3  -9 5.78418 0.79125   2
   2   3  -9 0.37235 5.94261   1
  -2  -3   9 4.86968 0.74749   2
  -2  -3   9 5.19793 1.20475   3
  -2  -3   9 2.61226 5.39281   1
   1   3  -9 0.96206 5.65992   1
   1   3  -9 5.76328 0.69125   2
  -1  -3   9 6.55031 0.69060   2
  -1  -3   9 5.14362 5.19724   1
  -1  -3   9 6.66034 1.22719   3
   0   3  -9 244.670 18.7452   1
   0  -3   9 258.099 17.7784   1
   0  -3   9 236.498 6.59893   2
  -1   3  -9 46.5943 10.1076   1
   1  -3   9 58.1001 1.98066   2
   1  -3   9 60.0793 12.8572   1
  -2   3  -9 358.826 23.3018   1
   2  -3   9 343.269 9.49339   2
   2  -3   9 353.763 9.49871   2
   2  -3   9 340.050 22.5179   1
  -3   3  -9 274.215 21.5458   1
   3  -3   9 248.724 7.14823   2
   3  -3   9 242.587 7.10138   2
   3  -3   9 250.968 20.7134   1
  -4   3  -9 -5.7463 9.13637   1
   4  -3   9 -10.566 8.34997   1
  -5   3  -9 395.854 11.5738   3
  -5   3  -9 412.930 30.0540   1
   5  -3   9 414.935 11.6325   2
   5  -3   9 416.540 32.0842   1
  -6   3  -9 15.5968 1.63543   3
  -6   3  -9 12.5515 15.7775   1
   6  -3   9 13.1827 1.56326   2
   6  -3   9 -1.4894 14.3631   1
  -7   3  -9 65.5535 3.20661   3
  -7   3  -9 62.4731 20.5087   1
   7  -3   9 72.7125 3.48063   2
   7  -3   9 33.3029 21.3400   1
  -8   3  -9 128.753 4.92822   3
  -8   3  -9 133.026 30.7730   1
   8  -3   9 123.174 5.22195   2
   8  -3   9 112.826 28.7652   1
  -9   3  -9 7.17380 1.61531   3
   9  -3   9 6.27589 1.79276   2
   9  -3   9 -27.684 54.2698   1
  10   2  -9 8.80209 2.08261   2
 -10  -2   9 13.7102 2.89855   3
   9   2  -9 -25.307 27.9875   1
   9   2  -9 13.4299 28.0953   1
   8   2  -9 -17.419 19.9878   1
   8   2  -9 14.1569 20.1231   1
   7   2  -9 -15.936 14.5293   1
   7   2  -9 7.20009 1.58319   2
   7   2  -9 19.7180 16.6601   1
  -7  -2   9 7.53097 1.97380   3
   6   2  -9 23.2198 13.2025   1
   6   2  -9 42.3752 15.4420   1
   6   2  -9 30.2162 2.57162   2
  -6  -2   9 29.1067 2.24129   2
  -6  -2   9 31.2833 2.79061   3
   5   2  -9 83.1614 3.66412   2
   5   2  -9 72.2312 15.0735   1
  -5  -2   9 85.1130 3.50417   2
  -5  -2   9 84.5748 4.08822   3
   4   2  -9 38.6707 10.7671   1
   4   2  -9 47.0323 2.54011   2
  -4  -2   9 46.8439 2.41090   2
  -4  -2   9 46.6001 2.84073   3
   3   2  -9 119.721 14.6651   1
  -3  -2   9 113.272 13.3484   1
  -3  -2   9 108.994 3.79325   2
  -3  -2   9 108.536 4.27309   3
   2   2  -9 546.282 14.8643   2
   2   2  -9 583.496 29.2764   1
  -2  -2   9 551.452 14.8503   2
  -2  -2   9 538.598 27.0178   1
  -2  -2   9 546.987 15.3889   3
   1   2  -9 26.4414 1.43652   2
   1   2  -9 27.4276 7.73954   1
  -1  -2   9 28.5473 1.40472   2
  -1  -2   9 28.6941 1.73634   3
  -1  -2   9 14.9736 6.45586   1
   0   2  -9 18.9517 1.17322   2
   0  -2   9 15.6738 1.05833   2
   0  -2   9 12.9650 6.39476   1
  -1   2  -9 144.136 13.8255   1
   1  -2   9 166.142 4.79511   2
   1  -2   9 180.202 14.9307   1
  -2   2  -9 382.241 23.2768   1
   2  -2   9 435.581 11.5372   2
   2  -2   9 450.704 24.4973   1
  -3   2  -9 346.105 22.8714   1
   3  -2   9 362.478 23.2220   1
   3  -2   9 344.020 9.64039   2
   3  -2   9 344.104 9.67525   2
  -4   2  -9 374.648 25.2801   1
   4  -2   9 407.698 11.4097   2
   4  -2   9 447.252 27.1592   1
  -5   2  -9 157.154 18.8177   1
  -5   2  -9 172.490 5.40715   3
   5  -2   9 184.773 5.80039   2
   5  -2   9 156.418 20.7444   1
  -6   2  -9 9.83511 13.3861   1
  -6   2  -9 8.08024 1.15861   3
   6  -2   9 -0.4510 13.6072   1
   6  -2   9 5.37783 1.20418   2
  -7   2  -9 144.032 22.7472   1
  -7   2  -9 138.605 4.85825   3
   7  -2   9 147.057 5.36267   2
   7  -2   9 125.447 22.2615   1
  -8   2  -9 1.41600 0.93307   3
  -8   2  -9 1.03003 19.0534   1
   8  -2   9 -1.3980 20.0050   1
   8  -2   9 -1.8212 0.96824   2
  -9   2  -9 101.013 29.3221   1
  -9   2  -9 80.7900 3.64896   3
   9  -2   9 83.2081 30.9993   1
   9  -2   9 84.0617 4.37704   2
 -10   2  -9 19.3980 2.06545   3
  10  -2   9 19.9665 2.41021   2
  10   1  -9 8.14121 2.17488   2
 -10  -1   9 5.43191 2.31981   3
   9   1  -9 0.22728 30.9806   1
   9   1  -9 1.09241 1.54883   2
   9   1  -9 13.9336 32.1182   1
  -9  -1   9 2.89791 2.17795   3
   8   1  -9 8.94255 20.0774   1
   8   1  -9 10.6750 23.1621   1
   8   1  -9 3.93975 1.53098   2
  -8  -1   9 1.65167 1.78347   3
   7   1  -9 56.1732 18.4397   1
   7   1  -9 58.0218 20.6999   1
  -7  -1   9 63.7851 4.08585   3
   6   1  -9 77.7137 28.0862   1
   6   1  -9 114.407 19.2273   1
   6   1  -9 136.360 5.22286   2
  -6  -1   9 130.748 5.66042   3
   5   1  -9 60.9098 15.0242   1
   5   1  -9 81.3950 3.72471   2
   5   1  -9 60.8321 15.1228   1
  -5  -1   9 87.4346 3.63074   2
  -5  -1   9 72.4349 3.87415   3
   4   1  -9 5.20104 1.14613   2
   4   1  -9 4.51130 8.25605   1
   4   1  -9 7.45874 9.10449   1
  -4  -1   9 6.39472 1.14984   2
  -4  -1   9 5.49132 1.43789   3
   3   1  -9 594.222 30.6394   1
  -3  -1   9 606.441 16.7798   3
  -3  -1   9 584.553 16.2199   2
  -3  -1   9 583.209 44.0844   1
   2   1  -9 50.9106 9.79749   1
   2   1  -9 49.0432 2.25862   2
  -2  -1   9 48.5255 2.46194   3
  -2  -1   9 28.5832 13.7119   1
   1   1  -9 110.690 3.63946   2
   1   1  -9 118.685 12.7374   1
  -1  -1   9 92.4902 14.5998   1
  -1  -1   9 107.317 3.55109   2
  -1  -1   9 110.696 3.84701   3
   0   1  -9 23.4610 1.39606   2
   0   1  -9 27.3189 7.36757   1
   0  -1   9 25.8328 1.38650   2
   0  -1   9 30.8293 7.49905   1
   0  -1   9 25.2350 1.49352   3
  -1   1  -9 3.26591 5.03517   1
  -1   1  -9 0.24122 0.55022   2
   1  -1   9 0.46120 0.49978   2
   1  -1   9 -3.2391 4.50445   1
  -2   1  -9 442.085 24.1091   1
   2  -1   9 493.103 13.1908   2
   2  -1   9 525.954 25.5033   1
  -3   1  -9 7.90337 6.38748   1
   3  -1   9 6.49820 6.24693   1
  -4   1  -9 293.483 22.1520   1
  -4   1  -9 306.923 8.38787   3
   4  -1   9 290.300 21.2476   1
   4  -1   9 317.707 9.42367   2
   4  -1   9 311.880 8.90520   2
  -5   1  -9 13.1486 1.03508   3
  -5   1  -9 25.3096 10.0651   1
   5  -1   9 8.58539 8.92036   1
   5  -1   9 11.4448 1.38220   2
  -6   1  -9 282.198 8.09665   3
  -6   1  -9 286.520 25.7326   1
   6  -1   9 285.816 8.79575   2
   6  -1   9 309.282 27.1811   1
  -7   1  -9 16.7195 1.42524   3
  -7   1  -9 22.9623 13.1151   1
   7  -1   9 5.88763 13.2701   1
   7  -1   9 17.6099 1.91415   2
  -8   1  -9 2.63664 1.01604   3
  -8   1  -9 28.4222 16.4209   1
   8  -1   9 4.05049 1.35358   2
   8  -1   9 -4.2909 16.5358   1
  -9   1  -9 -31.230 23.2350   1
  -9   1  -9 -1.6916 0.93319   3
   9  -1   9 2.17022 1.36903   2
   9  -1   9 -10.845 22.0127   1
 -10   1  -9 39.2022 2.53798   3
  10  -1   9 45.3213 3.56596   2
   9   0  -9 23.1095 40.2357   1
   9   0  -9 1.82266 1.79364   2
   9   0  -9 -4.6793 31.8661   1
  -9   0   9 0.44606 1.85231   3
   8   0  -9 9.51899 1.89020   2
   8   0  -9 21.5015 24.7979   1
   8   0  -9 11.6943 25.7695   1
  -8   0   9 7.65120 2.26947   3
   7   0  -9 -4.3179 16.2816   1
   7   0  -9 -5.3296 17.4544   1
   7   0  -9 4.93429 2.04893   2
  -7   0   9 8.13474 2.10488   3
   6   0  -9 41.7964 17.4773   1
   6   0  -9 46.3825 3.16044   2
   6   0  -9 64.9498 17.7356   1
  -6   0   9 49.4723 3.40862   3
   5   0  -9 -0.8376 1.08920   2
   5   0  -9 11.7415 10.7656   1
   5   0  -9 -3.2436 10.8861   1
  -5   0   9 2.36148 1.03646   2
   4   0  -9 63.7542 3.09097   2
   4   0  -9 55.4356 12.4318   1
   4   0  -9 57.6345 12.7614   1
  -4   0   9 59.1772 3.25942   3
  -4   0   9 58.5442 2.87615   2
   3   0  -9 23.2822 8.90121   1
   3   0  -9 30.3591 9.93157   1
   3   0  -9 33.7447 2.15055   2
  -3   0   9 32.6254 2.23368   3
  -3   0   9 32.1557 2.00827   2
   2   0  -9 5.58157 1.02081   2
   2   0  -9 -0.6341 6.44068   1
  -2   0   9 6.72021 0.93039   2
  -2   0   9 11.6009 6.83955   1
  -2   0   9 11.2525 1.35435   3
   1   0  -9 146.426 4.72958   2
   1   0  -9 169.061 14.4120   1
  -1   0   9 148.439 13.8317   1
  -1   0   9 147.671 4.85085   3
   0   0  -9 13.3645 1.28375   2
   0   0  -9 4.86543 5.93420   1
   0   0   9 13.8113 1.21469   2
   0   0   9 16.2155 6.44218   1
   0   0   9 13.3397 1.16681   3
  -1   0  -9 563.182 15.1826   2
  -1   0  -9 576.357 26.5407   1
   1   0   9 559.730 14.9802   3
   1   0   9 569.591 26.1206   1
   1   0   9 555.705 15.1341   2
  -2   0  -9 227.465 15.7633   1
   2   0   9 231.339 6.72422   2
   2   0   9 237.043 16.3228   1
  -3   0  -9 238.418 17.6105   1
   3   0   9 225.769 7.14927   2
   3   0   9 247.073 17.1726   1
  -4   0  -9 50.7721 10.3022   1
   4   0   9 30.8555 9.29954   1
   4   0   9 44.8894 2.19111   2
   4   0   9 47.5292 2.36042   2
  -5   0  -9 556.890 29.0147   1
   5   0   9 531.870 15.0291   2
   5   0   9 535.167 30.4914   1
   5   0   9 548.089 15.0964   2
  -6   0  -9 51.3747 12.6604   1
   6   0   9 30.7977 11.3906   1
   6   0   9 50.1859 2.82159   2
  -7   0  -9 29.6193 13.1930   1
   7   0   9 21.9560 2.01741   2
   7   0   9 4.89152 12.5987   1
  -8   0  -9 63.5219 17.3234   1
  -8   0  -9 46.7192 2.15190   3
   8   0   9 32.4825 16.9212   1
   8   0   9 46.1993 3.05102   2
   9   0   9 1.29683 1.34337   2
   9   0   9 -10.711 21.5693   1
  10   0   9 7.62328 1.86881   2
  10   0   9 -34.100 45.4441   1
  11   0   9 93.3784 5.14032   2
   9  -1  -9 -43.726 43.7884   1
   9  -1  -9 3.58157 42.4033   1
  -9   1   9 1.47091 1.86156   3
   8  -1  -9 -1.0912 31.2679   1
   8  -1  -9 6.01596 1.71430   2
   8  -1  -9 -5.5887 28.9756   1
  -8   1   9 8.06736 2.36769   3
   7  -1  -9 32.1552 21.8223   1
   7  -1  -9 3.24027 1.50210   2
   7  -1  -9 -10.579 19.2185   1
  -7   1   9 3.58258 1.82270   3
   6  -1  -9 0.77266 1.16620   2
   6  -1  -9 4.19866 14.1849   1
   6  -1  -9 7.91447 15.8893   1
  -6   1   9 1.84178 1.29256   3
   5  -1  -9 105.448 4.57221   2
   5  -1  -9 128.173 20.4131   1
   5  -1  -9 85.6876 16.6529   1
  -5   1   9 113.551 5.01927   3
   4  -1  -9 323.201 9.65602   2
   4  -1  -9 329.905 25.1242   1
   4  -1  -9 282.771 24.0330   1
  -4   1   9 311.434 10.4561   2
   3  -1  -9 7.43694 1.23468   2
   3  -1  -9 12.1354 8.73420   1
   3  -1  -9 4.07829 8.24923   1
  -3   1   9 10.4663 1.29291   2
  -3   1   9 8.78790 1.44199   3
   2  -1  -9 77.7515 11.7451   1
   2  -1  -9 79.6796 3.27534   2
  -2   1   9 81.4956 3.21913   2
  -2   1   9 84.6995 3.43495   3
   1  -1  -9 1214.28 45.4632   1
   1  -1  -9 1207.36 31.7058   2
  -1   1   9 1195.73 31.6811   2
  -1   1   9 1221.46 45.5863   1
  -1   1   9 1179.20 31.8076   3
   0  -1  -9 305.855 18.3530   1
   0  -1  -9 301.947 8.71004   2
   0   1   9 309.590 9.04949   2
   0   1   9 295.119 18.6382   1
  -1  -1  -9 321.485 9.02317   2
  -1  -1  -9 299.569 17.9554   1
   1   1   9 315.850 9.00588   2
   1   1   9 311.487 8.71288   3
   1   1   9 339.211 18.8273   1
  -2  -1  -9 219.549 6.66917   2
  -2  -1  -9 231.895 15.1588   1
   2   1   9 208.472 15.4301   1
   2   1   9 233.695 6.71948   2
  -3  -1  -9 159.747 13.9413   1
   3   1   9 166.310 14.4230   1
   3   1   9 164.337 5.14400   2
  -4  -1  -9 -3.4342 5.07384   1
   4   1   9 0.12354 0.65202   2
   4   1   9 0.53296 5.61789   1
  -5  -1  -9 1.09887 6.69743   1
   5   1   9 15.3837 8.03452   1
   5   1   9 9.94801 1.23801   2
   5   1   9 7.92849 1.22590   2
  -6  -1  -9 -8.2905 6.96272   1
   6   1   9 2.63275 8.16849   1
   6   1   9 0.25087 1.01720   2
   6   1   9 1.22820 0.95119   2
  -7  -1  -9 163.872 19.9322   1
   7   1   9 185.958 6.40115   2
   7   1   9 166.521 20.7637   1
  -8  -1  -9 88.0395 17.6298   1
   8   1   9 91.0743 19.5585   1
   8   1   9 108.711 4.68446   2
  -9  -1  -9 -12.490 16.8740   1
   9   1   9 42.2647 20.1117   1
   9   1   9 16.7744 2.77119   2
  10   1   9 4.53008 1.69824   2
  10   1   9 7.78863 25.8386   1
  11   1   9 12.0831 2.15790   2
   8  -2  -9 -35.393 31.2257   1
   8  -2  -9 1.00396 1.59820   2
   8  -2  -9 -28.888 37.4645   1
  -8   2   9 2.04563 2.13018   3
   7  -2  -9 38.6659 25.2259   1
   7  -2  -9 26.2699 24.5917   1
   6  -2  -9 32.6473 19.4951   1
   6  -2  -9 38.6117 4.16837   2
   5  -2  -9 125.422 5.20580   2
   5  -2  -9 129.432 20.4590   1
   5  -2  -9 113.592 20.4962   1
  -5   2   9 135.409 5.67066   3
   4  -2  -9 127.943 17.8278   1
   4  -2  -9 177.915 6.08563   2
   4  -2  -9 222.459 24.3262   1
  -4   2   9 180.739 6.49514   3
  -4   2   9 151.650 5.83903   2
   3  -2  -9 161.017 18.4373   1
   3  -2  -9 174.667 20.2087   1
   3  -2  -9 160.379 5.69820   2
  -3   2   9 164.259 5.61969   2
  -3   2   9 162.481 5.93838   3
   2  -2  -9 8.21404 7.00789   1
   2  -2  -9 5.35995 13.5643   1
   2  -2  -9 9.20066 1.26306   2
  -2   2   9 10.2672 1.17945   2
  -2   2   9 17.2254 1.92437   3
   1  -2  -9 7.85758 6.40178   1
   1  -2  -9 11.6397 6.84475   1
   1  -2  -9 2.33066 0.78997   2
  -1   2   9 5.59227 6.61903   1
  -1   2   9 3.53682 0.83651   2
  -1   2   9 4.07427 0.96419   3
   0  -2  -9 207.440 15.4272   1
   0  -2  -9 213.573 6.70491   2
   0   2   9 230.212 6.68786   3
   0   2   9 218.472 6.69427   2
   0   2   9 246.583 16.6308   1
  -1  -2  -9 -0.1810 4.76935   1
   1   2   9 5.16412 0.91330   2
   1   2   9 6.25660 5.73677   1
   1   2   9 4.85268 0.78088   3
  -2  -2  -9 140.122 12.4775   1
   2   2   9 157.193 12.9144   1
   2   2   9 162.734 5.04198   2
   2   2   9 158.213 4.50649   3
  -3  -2  -9 56.9463 8.76150   1
   3   2   9 55.7305 8.78979   1
   3   2   9 56.2531 2.47660   2
  -4  -2  -9 119.385 12.0612   1
   4   2   9 126.321 13.2669   1
   4   2   9 122.146 4.24804   2
  -5  -2  -9 31.0143 8.08628   1
   5   2   9 34.1318 9.36081   1
   5   2   9 31.9622 2.04137   2
  -6  -2  -9 102.673 13.0494   1
   6   2   9 92.5260 13.8664   1
   6   2   9 102.416 4.13043   2
   6   2   9 102.519 4.04535   2
  -7  -2  -9 304.225 22.6650   1
   7   2   9 280.704 24.4908   1
   7   2   9 323.386 9.66975   2
   7   2   9 306.058 9.58178   2
  -8  -2  -9 200.415 22.4106   1
   8   2   9 224.803 7.64527   2
   8   2   9 227.132 25.1471   1
  -9  -2  -9 11.2684 14.7988   1
   9   2   9 30.2136 16.2702   1
   9   2   9 38.5884 3.11875   2
 -10  -2  -9 13.9942 19.9328   1
  10   2   9 1.52581 1.45393   2
  10   2   9 -3.7764 21.8760   1
  11   2   9 1.62880 1.55347   2
   8  -3  -9 3.98766 38.1931   1
   8  -3  -9 38.7036 42.4820   1
   8  -3  -9 -0.2915 3.12540   2
  -8   3   9 6.80545 2.62770   3
   7  -3  -9 45.1841 27.2270   1
   7  -3  -9 -15.019 31.8210   1
   7  -3  -9 3.41989 1.74780   2
  -7   3   9 2.81931 1.50776   3
   6  -3  -9 73.7099 23.4747   1
   6  -3  -9 97.7223 4.83159   2
   6  -3  -9 90.7340 22.8366   1
  -6   3   9 107.112 5.41741   3
   5  -3  -9 -0.5738 15.6818   1
   5  -3  -9 10.0441 16.4753   1
   5  -3  -9 0.97459 1.17004   2
  -5   3   9 0.15523 1.72956   3
   4  -3  -9 1.78577 12.3614   1
   4  -3  -9 6.36382 1.32038   2
   4  -3  -9 5.59319 11.1357   1
  -4   3   9 10.2314 1.92570   3
   3  -3  -9 0.45574 0.95755   2
   3  -3  -9 -7.0468 8.83265   1
   3  -3  -9 -0.1148 9.80073   1
  -3   3   9 2.21077 1.21424   3
  -3   3   9 1.43595 1.02223   2
   2  -3  -9 111.516 4.26274   2
   2  -3  -9 93.6707 14.0654   1
   2  -3  -9 104.268 15.2728   1
  -2   3   9 104.263 4.34637   3
  -2   3   9 111.683 4.19298   2
   1  -3  -9 48.0477 2.55216   2
   1  -3  -9 42.1984 9.82982   1
   1  -3  -9 53.0139 9.84944   1
  -1   3   9 46.1156 2.40783   2
  -1   3   9 46.9170 2.53770   3
   0  -3  -9 240.847 17.1775   1
   0  -3  -9 188.153 6.11471   2
   0  -3  -9 157.154 14.9252   1
   0   3   9 199.062 16.7320   1
   0   3   9 193.324 6.08477   3
   0   3   9 198.103 6.14715   2
  -1  -3  -9 83.3195 3.63460   2
  -1  -3  -9 82.4502 10.6006   1
   1   3   9 81.5173 3.20053   2
   1   3   9 76.8531 10.5007   1
  -2  -3  -9 266.373 15.7580   1
   2   3   9 246.241 7.09658   3
   2   3   9 269.712 16.3350   1
   2   3   9 248.861 7.51514   2
  -3  -3  -9 537.964 23.1907   1
  -3  -3  -9 518.218 15.0898   2
   3   3   9 528.141 14.6023   2
   3   3   9 539.210 24.5212   1
  -4  -3  -9 7.97889 5.26840   1
   4   3   9 12.3291 1.36803   2
   4   3   9 10.5899 6.08338   1
  -5  -3  -9 204.998 14.7698   1
   5   3   9 199.367 15.8626   1
   5   3   9 200.900 6.47952   2
  -6  -3  -9 9.15325 6.43186   1
   6   3   9 3.81327 1.00158   2
   6   3   9 2.90473 1.15503   2
   6   3   9 5.89117 8.27159   1
  -7  -3  -9 8.03075 8.18262   1
   7   3   9 0.49088 0.95501   2
   7   3   9 0.07489 1.13147   2
   7   3   9 -4.7690 8.52875   1
  -8  -3  -9 -6.3044 9.15131   1
   8   3   9 6.30255 11.3948   1
   8   3   9 0.77429 1.17672   2
  -9  -3  -9 68.2537 16.1549   1
   9   3   9 102.883 4.75007   2
   9   3   9 82.0602 18.1818   1
 -10  -3  -9 39.5585 17.8638   1
  10   3   9 56.2740 21.1985   1
  10   3   9 50.2456 3.73074   2
  11   3   9 1.01201 1.41732   2
  12   3   9 6.26586 2.32734   2
   7  -4  -9 5.22788 1.84408   2
   7  -4  -9 -37.819 35.6473   1
   7  -4  -9 -19.202 36.0496   1
  -7   4   9 3.58493 2.51120   3
   6  -4  -9 8.48112 1.93115   2
   6  -4  -9 -31.376 22.4541   1
   6  -4  -9 -8.6198 24.9935   1
  -6   4   9 12.4714 2.77130   3
   5  -4  -9 -25.710 16.2959   1
   5  -4  -9 -9.8612 18.0752   1
   5  -4  -9 -0.8968 1.13696   2
  -5   4   9 -2.1160 1.36282   3
   4  -4  -9 128.330 21.0674   1
   4  -4  -9 142.878 5.57271   2
   4  -4  -9 115.087 19.8703   1
   3  -4  -9 63.4682 3.41977   2
   3  -4  -9 62.2219 26.9605   1
   2  -4  -9 103.363 15.3303   1
   2  -4  -9 119.476 16.5632   1
  -2   4   9 125.898 5.22284   2
  -2   4   9 126.681 5.02992   3
   1  -4  -9 -4.7261 6.10605   1
   1  -4  -9 -1.5371 6.77606   1
   1  -4  -9 0.68605 0.90669   2
  -1   4   9 0.60422 0.98513   3
  -1   4   9 2.21474 0.90906   2
   0  -4  -9 2.04335 0.89903   2
   0  -4  -9 3.85043 5.14704   1
   0   4   9 2.01854 0.88251   2
   0   4   9 1.12857 0.86735   3
  -1  -4  -9 44.0787 8.30184   1
  -1  -4  -9 37.1151 7.79224   1
  -1  -4  -9 60.0622 3.06152   2
   1   4   9 45.0553 2.40439   2
   1   4   9 43.4938 8.34140   1
   1   4   9 45.4296 2.24094   3
  -2  -4  -9 572.360 24.9085   1
  -2  -4  -9 587.229 16.2063   2
   2   4   9 614.969 26.8068   1
   2   4   9 560.324 16.1102   2
   2   4   9 602.133 16.2160   3
  -3  -4  -9 1.41627 4.04344   1
  -3  -4  -9 3.36164 0.98235   2
   3   4   9 4.16947 4.88039   1
   3   4   9 2.57274 0.89643   2
   3   4   9 2.26016 0.60671   3
  -4  -4  -9 7.15971 4.67867   1
   4   4   9 1.43343 0.86293   2
   4   4   9 -0.1548 4.83021   1
  -5  -4  -9 0.77931 4.93181   1
   5   4   9 4.02624 1.05384   2
   5   4   9 9.61574 6.33169   1
  -6  -4  -9 4.69851 5.58404   1
   6   4   9 0.91712 0.73908   2
   6   4   9 -5.4632 7.04434   1
  -7  -4  -9 59.9235 9.79144   1
   7   4   9 63.8389 12.1939   1
   7   4   9 75.5602 3.41379   2
   7   4   9 71.4678 3.61907   2
  -8  -4  -9 44.4985 10.5661   1
   8   4   9 57.2924 13.1085   1
   8   4   9 54.0053 3.34523   2
  -9  -4  -9 222.113 21.1441   1
   9   4   9 240.950 8.25453   2
   9   4   9 201.903 24.5656   1
 -10  -4  -9 0.80075 13.6023   1
  10   4   9 -5.8811 16.2792   1
  10   4   9 0.08392 1.35758   2
  11   4   9 74.2399 4.64673   2
  12   4   9 9.72484 4.19521   2
   7  -5  -9 0.26297 1.65712   2
  -7   5   9 -0.0766 1.86895   3
   6  -5  -9 39.8439 31.7610   1
   6  -5  -9 19.3530 30.2394   1
   6  -5  -9 16.7972 2.41229   2
  -6   5   9 16.5329 3.04665   3
   5  -5  -9 -5.8805 23.5120   1
   5  -5  -9 10.3459 1.93745   2
   5  -5  -9 18.3533 23.0811   1
  -5   5   9 10.6436 2.20624   3
   4  -5  -9 42.2150 18.3894   1
   4  -5  -9 21.9621 18.0798   1
  -4   5   9 39.8069 3.36942   3
   3  -5  -9 4.92565 11.6868   1
   3  -5  -9 -0.9397 1.14662   2
   3  -5  -9 0.37620 13.5077   1
  -3   5   9 2.28006 1.60653   3
   2  -5  -9 37.5371 11.6477   1
   2  -5  -9 25.8969 2.36248   2
   2  -5  -9 13.7839 12.5333   1
  -2   5   9 26.8210 2.46297   3
  -2   5   9 27.8130 2.70488   2
   1  -5  -9 84.1291 3.84564   2
  -1   5   9 82.7405 3.91582   3
  -1   5   9 88.0791 4.28318   2
   0  -5  -9 756.725 33.7572   1
   0  -5  -9 675.002 31.9577   1
   0  -5  -9 724.570 19.6785   2
   0   5   9 707.804 19.6342   2
   0   5   9 702.989 19.7689   3
  -1  -5  -9 74.9463 9.99966   1
  -1  -5  -9 70.7515 3.20499   2
  -1  -5  -9 70.9031 10.3365   1
   1   5   9 67.7735 3.07444   2
   1   5   9 68.1756 3.02894   3
  -2  -5  -9 130.084 11.0109   1
  -2  -5  -9 105.066 4.08417   2
   2   5   9 92.2581 11.8680   1
   2   5   9 105.608 4.00818   2
   2   5   9 105.649 3.79943   3
  -3  -5  -9 53.7677 7.56694   1
  -3  -5  -9 62.1866 2.95381   2
  -3  -5  -9 63.7647 8.46946   1
   3   5   9 57.1392 2.81667   2
   3   5   9 61.0598 2.68407   3
   3   5   9 64.0317 9.54447   1
  -4  -5  -9 70.9577 8.38992   1
  -4  -5  -9 54.3346 6.94256   1
   4   5   9 73.4357 3.12308   2
   4   5   9 71.9771 9.56680   1
   4   5   9 65.8739 2.41090   3
  -5  -5  -9 -0.1968 3.96450   1
   5   5   9 1.60133 0.86366   2
   5   5   9 1.66380 5.20551   1
  -6  -5  -9 11.8686 4.96554   1
   6   5   9 16.5849 7.27430   1
  -7  -5  -9 1.03323 5.01951   1
   7   5   9 -1.0543 0.72224   2
   7   5   9 0.18845 1.06355   2
   7   5   9 4.58373 7.46139   1
  -8  -5  -9 5.60035 6.65709   1
   8   5   9 -2.6253 9.66582   1
   8   5   9 6.21790 1.53647   2
  -9  -5  -9 62.9820 10.5311   1
   9   5   9 67.6753 3.90884   2
   9   5   9 36.2202 13.7070   1
  10   5   9 1.44490 15.8947   1
  11   5   9 2.01409 1.61578   2
  12   5   9 3.58418 2.60242   2
   6  -6  -9 1.22353 1.57589   2
  -6   6   9 1.68943 1.84898   3
   5  -6  -9 21.4973 26.4795   1
   5  -6  -9 -32.891 30.0760   1
   5  -6  -9 -2.0440 1.21180   2
  -5   6   9 1.03282 1.56262   3
   4  -6  -9 2.31436 1.29660   2
   4  -6  -9 -8.9294 32.3635   1
   4  -6  -9 2.57271 19.5167   1
  -4   6   9 0.06550 1.51050   3
   3  -6  -9 3.64125 1.47883   2
   3  -6  -9 3.19696 15.1649   1
   3  -6  -9 -4.9137 14.0858   1
  -3   6   9 7.84026 2.07159   3
   2  -6  -9 86.6605 16.0549   1
   2  -6  -9 110.146 4.63651   2
   2  -6  -9 89.9952 16.6845   1
  -2   6   9 107.856 4.98886   3
   1  -6  -9 -1.1322 8.54309   1
   1  -6  -9 10.0214 8.59742   1
   1  -6  -9 4.53874 1.34044   2
  -1   6   9 3.35402 1.39388   2
  -1   6   9 2.74376 1.35279   3
   0  -6  -9 151.591 17.2883   1
   0  -6  -9 145.430 15.8790   1
   0  -6  -9 121.948 4.85638   2
   0   6   9 126.815 4.84006   2
   0   6   9 130.344 5.03406   3
  -1  -6  -9 5.88801 7.11515   1
  -1  -6  -9 13.8010 1.67020   2
   1   6   9 9.14358 1.44389   3
   1   6   9 14.5135 1.61591   2
  -2  -6  -9 105.472 10.9138   1
  -2  -6  -9 110.088 12.7815   1
  -2  -6  -9 106.666 4.22515   2
   2   6   9 105.385 4.13767   2
   2   6   9 107.532 4.03768   3
  -3  -6  -9 102.148 9.51314   1
  -3  -6  -9 93.8697 3.94462   2
  -3  -6  -9 103.396 10.2609   1
   3   6   9 97.5827 3.64195   3
   3   6   9 89.7172 13.5685   1
   3   6   9 100.878 3.97123   2
  -4  -6  -9 36.5896 4.97049   1
  -4  -6  -9 42.8280 2.76703   2
  -4  -6  -9 44.7414 5.34112   1
   4   6   9 42.5835 2.58223   2
   5   6   9 34.5709 2.34678   2
   5   6   9 17.6200 6.75229   1
   6   6   9 72.5369 10.0013   1
   6   6   9 76.9394 3.52741   2
   7   6   9 65.3383 10.4500   1
   8   6   9 -0.3702 1.18334   2
   8   6   9 4.88549 8.65726   1
   9   6   9 3.66613 1.97641   2
   9   6   9 2.22260 11.6061   1
  10   6   9 73.4931 4.37113   2
  10   6   9 69.3704 19.7038   1
  11   6   9 0.92973 1.43604   2
  12   6   9 2.90703 3.25597   2
   5  -7  -9 8.92620 1.99718   2
  -5   7   9 3.99297 2.08850   3
   4  -7  -9 1.34746 1.43391   2
   4  -7  -9 -18.397 25.1991   1
  -4   7   9 -1.0045 1.31688   3
   3  -7  -9 -1.9037 19.4225   1
   3  -7  -9 1.03030 1.23070   2
   3  -7  -9 -15.158 17.6727   1
  -3   7   9 1.28363 1.48406   3
   2  -7  -9 14.2307 1.88722   2
   2  -7  -9 3.13516 19.5921   1
   2  -7  -9 11.7341 15.0640   1
  -2   7   9 9.80846 2.12055   3
   1  -7  -9 16.9944 12.8511   1
   1  -7  -9 11.4629 1.75121   2
   1  -7  -9 15.6283 11.1372   1
  -1   7   9 16.6886 2.43662   3
   0  -7  -9 18.6271 9.09881   1
   0  -7  -9 10.9409 1.49935   2
   0   7   9 9.44247 1.65721   3
  -1  -7  -9 17.1221 1.84165   2
  -1  -7  -9 20.5074 9.05494   1
  -1  -7  -9 20.2020 7.94093   1
   1   7   9 19.6443 2.11344   3
   1   7   9 21.3880 2.05613   2
  -2  -7  -9 356.286 18.6993   1
  -2  -7  -9 354.153 10.5872   2
  -2  -7  -9 334.123 19.3141   1
   2   7   9 345.754 10.5814   2
   2   7   9 356.022 10.6055   3
  -3  -7  -9 17.9624 5.90505   1
  -3  -7  -9 17.2829 5.49021   1
  -3  -7  -9 22.2107 2.16508   2
   3   7   9 19.0346 1.79764   3
  -4  -7  -9 456.467 13.4358   2
   4   7   9 466.651 23.1165   1
   4   7   9 466.997 15.1335   2
   5   7   9 116.529 4.60808   2
   5   7   9 118.635 11.9562   1
   6   7   9 81.7307 3.82823   2
   6   7   9 84.0312 9.99041   1
   7   7   9 102.413 12.5471   1
   8   7   9 1.66684 1.32979   2
   8   7   9 -3.2912 8.37093   1
   9   7   9 26.4994 18.4232   1
  10   7   9 0.27663 1.31602   2
  11   7   9 7.47129 1.86330   2
   4  -8  -9 5.29478 1.79807   2
  -4   8   9 3.02996 1.98532   3
   3  -8  -9 11.2302 1.90720   2
  -3   8   9 15.0997 2.76059   3
   2  -8  -9 -2.6206 1.02879   2
   2  -8  -9 26.5115 19.2927   1
   2  -8  -9 -2.5195 17.2206   1
  -2   8   9 2.60261 1.73213   3
   1  -8  -9 -0.7925 1.10751   2
  -1   8   9 0.53295 1.39588   3
   0  -8  -9 16.2702 13.0656   1
   0  -8  -9 40.6912 2.86949   2
   0  -8  -9 33.7358 11.0607   1
   0   8   9 35.6273 2.99288   3
  -1  -8  -9 54.9509 10.8415   1
  -1  -8  -9 48.5829 2.95052   2
  -1  -8  -9 39.5725 11.3461   1
   1   8   9 39.3159 3.64021   3
  -2  -8  -9 -5.4748 7.19642   1
  -2  -8  -9 -10.640 5.60352   1
  -2  -8  -9 -0.8441 0.89702   2
   2   8   9 -0.4280 1.01100   3
  -3  -8  -9 -2.0784 3.97206   1
  -3  -8  -9 4.04209 1.14702   2
  -3  -8  -9 4.52341 3.86361   1
   3   8   9 2.68556 1.10835   2
  -4  -8  -9 107.839 4.43361   2
   4   8   9 97.2021 4.21329   2
   5   8   9 1.07181 1.83937   2
   6   8   9 29.3782 7.38776   1
   7   8   9 2.20059 6.57411   1
   8   8   9 14.3758 8.07383   1
   8   8   9 15.8128 2.02073   2
   9   8   9 10.8833 11.4878   1
  10   8   9 10.3326 1.92846   2
  11   8   9 -0.3769 1.57160   2
  12   8   9 33.7681 3.63124   2
   3  -9  -9 15.7659 2.27372   2
  -3   9   9 17.6176 3.16440   3
   2  -9  -9 1.92747 1.40506   2
  -2   9   9 0.40100 1.59347   3
   1  -9  -9 14.3474 18.6884   1
   1  -9  -9 10.6218 1.95554   2
  -1   9   9 13.7929 2.73860   3
   0  -9  -9 115.410 18.6218   1
   0  -9  -9 70.8993 15.5668   1
   0  -9  -9 115.846 6.02506   2
   0   9   9 106.690 5.35595   3
  -1  -9  -9 19.0092 11.8442   1
  -1  -9  -9 28.1976 2.57034   2
  -1  -9  -9 40.6654 11.0318   1
   1   9   9 35.4231 2.99436   3
  -2  -9  -9 5.00668 1.44054   2
  -2  -9  -9 -0.3075 6.75275   1
  -2  -9  -9 -4.3698 7.61670   1
   2   9   9 3.58379 1.39197   3
  -3  -9  -9 62.6876 3.35952   2
   3   9   9 59.8954 3.45891   3
  -4  -9  -9 6.22142 1.33978   2
   9   9   9 12.3329 1.99400   2
   9   9   9 13.4764 7.18391   1
  10   9   9 -0.6134 1.39586   2
  11   9   9 12.5206 2.30247   2
   2 -10  -9 -0.3061 1.43145   2
  -2  10   9 -1.7586 1.95084   3
   1 -10  -9 -19.684 23.7290   1
   0 -10  -9 0.28785 1.11732   2
   0 -10  -9 -9.1948 16.8567   1
   0  10   9 1.36384 1.69565   3
  -1 -10  -9 3.58561 1.38904   2
  -1 -10  -9 -10.007 10.7008   1
   1  10   9 6.21854 2.23448   3
  -2 -10  -9 8.58524 1.70141   2
  -2 -10  -9 13.7202 8.69415   1
  -2 -10  -9 6.38829 8.30800   1
   2  10   9 11.7364 2.03793   3
  -3 -10  -9 46.3093 3.12103   2
   3  10   9 47.3001 3.38145   3
  -4 -10  -9 8.23294 1.64392   2
   9  10   9 5.90967 1.63602   2
  10  10   9 12.5440 2.22814   2
  11  10   9 1.10556 1.80743   2
   1 -11  -9 3.27358 1.52762   2
  -1  11   9 -1.7131 1.58084   3
   0 -11  -9 7.55361 22.8635   1
   0 -11  -9 22.7650 2.62989   2
   0  11   9 21.6150 3.50667   3
  -1 -11  -9 0.72146 1.20472   2
  -1 -11  -9 3.43585 14.9076   1
   1  11   9 0.85149 1.84961   3
  -2 -11  -9 16.6515 2.15867   2
   2  11   9 12.9962 2.41870   3
  -3 -11  -9 2.92721 1.35339   2
   3  11   9 2.60636 1.52152   3
   9  11   9 -0.3329 1.32538   2
  10  11   9 -0.7160 1.57319   2
  -1 -12  -9 8.74387 1.89495   2
   1  12   9 9.02029 2.38626   3
  -2 -12  -9 -0.4952 1.26099   2
   2  12   9 -1.1908 1.47338   3
  -3 -12  -9 24.4004 2.60645   2
   3  12   9 23.0116 3.12926   3
   9  12   9 71.8139 4.42892   2
   4  13   9 3.60574 2.03582   3
  -3 -12  10 46.0802 19.4166   1
  -2 -12  10 24.0227 24.8310   1
   6  11 -10 1.14748 27.1081   1
   5  11 -10 36.7853 25.8078   1
   4  11 -10 11.3402 22.6164   1
  -4 -11  10 4.86405 13.5195   1
   3  11 -10 50.2442 25.4160   1
   2  11 -10 45.8822 25.7077   1
  -2 -11  10 -15.734 17.9076   1
   1  11 -10 -48.678 27.2464   1
  -1 -11  10 -19.920 22.2568   1
   0  11 -10 34.6555 49.7864   1
   0 -11  10 -30.650 27.7697   1
   9  10 -10 3.44214 1.22204   2
   8  10 -10 64.2059 44.3953   1
   7  10 -10 21.4428 25.1296   1
   6  10 -10 11.7743 20.6282   1
   5  10 -10 4.98636 18.1782   1
   4  10 -10 40.9597 18.7674   1
  -4 -10  10 26.9344 12.6559   1
   3  10 -10 14.2318 18.3378   1
  -3 -10  10 21.9415 14.2779   1
   2  10 -10 36.5036 20.7420   1
  -2 -10  10 71.8035 17.4956   1
   1  10 -10 -27.787 21.5143   1
  -1 -10  10 7.98594 17.8643   1
   0  10 -10 -19.902 24.4707   1
   1 -10  10 -31.539 23.6009   1
  -2  10 -10 1.62952 35.7630   1
   2 -10  10 -28.082 29.6174   1
   9   9 -10 12.6922 1.62511   2
   8   9 -10 1.28045 1.07617   2
   8   9 -10 -6.5426 24.1073   1
   7   9 -10 -3.1621 19.7642   1
   5   9 -10 13.5734 15.6315   1
   4   9 -10 85.5253 18.6398   1
  -4  -9  10 118.879 15.8332   1
   3   9 -10 13.6269 14.7422   1
  -3  -9  10 14.6460 12.4262   1
   2   9 -10 -10.112 15.5344   1
  -2  -9  10 -1.0439 11.9336   1
   1   9 -10 152.459 25.6589   1
   0   9 -10 -4.8999 17.2011   1
   0  -9  10 -15.750 14.9251   1
  -1   9 -10 12.6562 35.1466   1
   1  -9  10 3.28616 18.5811   1
  -2   9 -10 -19.469 23.4658   1
   2  -9  10 15.8434 23.0132   1
  -3   9 -10 103.672 35.1387   1
   3  -9  10 97.3696 31.3936   1
   9   8 -10 3.55654 1.31427   2
   8   8 -10 35.4742 23.4716   1
   8   8 -10 32.8406 2.42853   2
   7   8 -10 23.3005 18.8362   1
   6   8 -10 -0.3828 14.6961   1
   6   8 -10 -0.2573 0.72119   2
   5   8 -10 8.95449 13.3315   1
   4   8 -10 57.3216 14.2042   1
  -4  -8  10 71.9482 13.5268   1
   3   8 -10 1.31139 11.8300   1
   2   8 -10 1.84431 12.6436   1
  -2  -8  10 -8.5846 10.4842   1
   1   8 -10 157.011 21.4712   1
  -1  -8  10 181.197 21.0365   1
   0   8 -10 0.67014 13.5023   1
   0  -8  10 9.11401 13.1243   1
  -1   8 -10 -9.6705 18.4032   1
   1  -8  10 0.71223 12.9312   1
  -2   8 -10 -11.790 20.5952   1
   2  -8  10 -3.1353 17.7359   1
  -3   8 -10 13.5464 25.1604   1
   3  -8  10 -38.097 25.5003   1
  -4   8 -10 31.4546 27.7078   1
   4  -8  10 -18.222 29.9331   1
  -5   8 -10 14.2545 2.38108   3
  -5   8 -10 21.0844 37.6667   1
   5  -8  10 41.3474 60.2115   1
  10   7 -10 3.02637 1.59479   2
 -10  -7  10 -0.1659 2.02023   3
   9   7 -10 38.2409 27.4054   1
   8   7 -10 -15.669 19.0621   1
   8   7 -10 1.76925 1.05174   2
  -8  -7  10 3.52536 1.84012   3
   7   7 -10 8.13969 15.9994   1
   7   7 -10 2.86514 1.09197   2
  -7  -7  10 -0.4138 1.59772   3
   6   7 -10 31.3416 13.3071   1
   6   7 -10 37.6121 2.82450   2
   5   7 -10 -1.5060 10.5704   1
   5   7 -10 0.20027 0.65087   2
   4   7 -10 6.88347 9.98822   1
   3   7 -10 29.4712 12.6626   1
  -3  -7  10 38.0839 11.3129   1
   2   7 -10 89.6546 15.8740   1
  -2  -7  10 110.452 15.6860   1
   1   7 -10 62.2009 14.9861   1
  -1  -7  10 46.0495 11.6052   1
   0   7 -10 4.14950 12.4698   1
   0  -7  10 14.3984 16.5748   1
  -1   7 -10 0.19404 13.6807   1
   1  -7  10 3.93226 12.3790   1
  -2   7 -10 27.6368 14.6486   1
   2  -7  10 -22.445 13.9991   1
  -3   7 -10 1.00229 19.3626   1
   3  -7  10 -5.8560 15.9940   1
  -4   7 -10 11.1349 24.1218   1
   4  -7  10 69.7871 24.3991   1
   4  -7  10 34.1234 1.67895   2
   4  -7  10 35.9504 1.75109   2
  -5   7 -10 8.61978 30.3475   1
  -5   7 -10 81.8977 4.28996   3
   5  -7  10 78.2038 28.9219   1
   5  -7  10 69.9774 3.00375   2
   5  -7  10 78.5351 3.04486   2
  -6   7 -10 25.4225 2.92079   3
  -6   7 -10 24.7142 37.3221   1
   6  -7  10 15.8907 1.59852   2
   6  -7  10 -19.154 42.2921   1
  10   6 -10 1.88205 1.62004   2
 -10  -6  10 -0.4744 1.83346   3
   9   6 -10 6.22854 1.67192   2
   9   6 -10 -8.7014 25.4964   1
  -9  -6  10 3.84198 1.93547   3
   8   6 -10 15.6722 22.9997   1
   8   6 -10 7.85367 19.8752   1
   8   6 -10 32.5980 2.66279   2
  -8  -6  10 25.5158 3.54092   3
   7   6 -10 74.5153 19.0098   1
   7   6 -10 62.9241 19.2056   1
   7   6 -10 76.7821 3.48967   2
  -7  -6  10 60.8749 3.54317   2
  -7  -6  10 77.4443 4.55789   3
   6   6 -10 291.101 8.55203   2
   6   6 -10 295.394 27.8660   1
  -6  -6  10 267.736 8.39915   2
  -6  -6  10 292.246 10.0109   3
   5   6 -10 111.341 17.5493   1
  -5  -6  10 115.660 3.92778   2
  -5  -6  10 119.819 5.31243   3
   4   6 -10 -0.1548 8.62434   1
   4   6 -10 0.51838 0.63390   2
  -4  -6  10 -0.4767 0.49799   2
  -4  -6  10 -0.2536 8.45749   1
   3   6 -10 106.548 15.9356   1
  -3  -6  10 117.459 15.3491   1
   2   6 -10 -1.3481 8.18347   1
  -2  -6  10 -1.9397 7.12433   1
   1   6 -10 211.459 20.4751   1
   0  -6  10 66.1553 13.2144   1
  -1   6 -10 6.38325 11.5186   1
   1  -6  10 -8.8910 9.00538   1
  -2   6 -10 18.5430 12.6774   1
   2  -6  10 29.3530 15.3029   1
  -3   6 -10 78.4115 17.7688   1
   3  -6  10 47.8793 15.3588   1
   3  -6  10 51.2995 1.91855   2
   3  -6  10 52.4442 1.95583   2
  -4   6 -10 -18.683 16.4337   1
   4  -6  10 22.4175 16.6700   1
   4  -6  10 25.8085 1.92433   2
   4  -6  10 27.0200 1.74115   2
  -5   6 -10 15.7827 2.01434   3
  -5   6 -10 -10.075 33.1497   1
   5  -6  10 13.0680 1.39844   2
   5  -6  10 33.7852 24.4743   1
  -6   6 -10 -27.794 27.1610   1
   6  -6  10 -3.7278 30.0983   1
  -7   6 -10 42.5671 65.4720   1
  -7   6 -10 11.7658 2.15057   3
   7  -6  10 10.4915 1.53739   2
   7  -6  10 20.5528 43.0187   1
  10   5 -10 8.14733 1.89364   2
 -10  -5  10 9.78572 2.86479   3
   9   5 -10 63.3542 3.88035   2
   9   5 -10 75.7692 28.1971   1
  -9  -5  10 70.8004 4.84537   3
   8   5 -10 4.10769 17.5735   1
   8   5 -10 -0.6827 18.7791   1
   8   5 -10 1.54614 1.25885   2
  -8  -5  10 2.02099 1.73993   3
   7   5 -10 12.9385 1.63504   2
   7   5 -10 34.3318 16.7435   1
   7   5 -10 6.54890 16.7026   1
  -7  -5  10 12.8301 2.31950   3
  -7  -5  10 9.94313 1.54101   2
   6   5 -10 26.5621 2.23464   2
   6   5 -10 8.61086 13.6288   1
  -6  -5  10 26.9364 2.75313   3
  -6  -5  10 23.7011 1.90945   2
   5   5 -10 1.43540 0.97583   2
   5   5 -10 11.7634 11.5486   1
  -5  -5  10 0.45998 0.74342   2
  -5  -5  10 -0.4767 1.42373   3
   4   5 -10 25.6269 10.3635   1
   4   5 -10 44.0295 2.13364   2
  -4  -5  10 40.7852 2.95579   3
  -4  -5  10 18.5020 9.31605   1
  -4  -5  10 43.4725 1.99370   2
   3   5 -10 80.6721 14.2698   1
   3   5 -10 93.0545 3.03106   2
  -3  -5  10 93.4410 3.01025   2
   2   5 -10 -7.9882 7.37783   1
  -2  -5  10 -3.5091 7.49511   1
   1   5 -10 5.71723 7.77074   1
  -1  -5  10 6.96154 7.47235   1
   0   5 -10 269.715 22.8751   1
   0  -5  10 285.542 21.3323   1
  -1   5 -10 196.420 20.7436   1
   1  -5  10 204.374 20.7446   1
  -2   5 -10 89.4629 15.7972   1
   2  -5  10 46.1378 12.8327   1
  -3   5 -10 14.9371 12.6861   1
   3  -5  10 9.35925 0.92891   2
   3  -5  10 9.67926 0.96806   2
   3  -5  10 -21.108 10.1454   1
  -4   5 -10 15.4188 15.7911   1
   4  -5  10 5.92974 0.94385   2
   4  -5  10 7.49567 13.2669   1
  -5   5 -10 0.50600 16.0873   1
  -5   5 -10 -0.8818 0.95673   3
   5  -5  10 -0.7102 0.75782   2
   5  -5  10 2.26471 17.0489   1
  -6   5 -10 93.3846 4.21405   3
  -6   5 -10 83.0038 26.1510   1
   6  -5  10 92.2565 26.1539   1
   6  -5  10 90.2152 3.75832   2
  -7   5 -10 28.0505 2.54392   3
  -7   5 -10 19.8062 32.9135   1
   7  -5  10 -12.691 32.3715   1
   7  -5  10 26.3707 2.27481   2
   8  -5  10 24.9412 41.4563   1
  10   4 -10 1.73054 1.62996   2
 -10  -4  10 -0.7343 2.10548   3
   9   4 -10 -20.252 27.0042   1
   8   4 -10 10.4956 21.7397   1
   8   4 -10 10.0988 1.81535   2
  -8  -4  10 12.1058 2.67017   3
   7   4 -10 86.4398 24.8520   1
   7   4 -10 83.4820 19.6065   1
   7   4 -10 101.521 4.32550   2
  -7  -4  10 94.6473 5.11449   3
   6   4 -10 77.5209 17.2292   1
   6   4 -10 59.7890 16.8739   1
   6   4 -10 80.8772 3.68248   2
  -6  -4  10 80.9655 3.60878   2
  -6  -4  10 89.2229 4.49734   3
   5   4 -10 133.941 18.2200   1
   5   4 -10 171.934 5.67493   2
  -5  -4  10 161.671 5.54539   2
  -5  -4  10 193.072 9.27468   3
   4   4 -10 386.788 11.0109   2
   4   4 -10 347.111 25.0479   1
  -4  -4  10 393.315 10.9357   2
  -4  -4  10 396.183 26.3254   1
  -4  -4  10 399.461 12.0267   3
   3   4 -10 215.449 6.21279   2
   3   4 -10 203.896 18.8980   1
  -3  -4  10 181.558 17.1967   1
  -3  -4  10 214.221 7.15666   3
  -3  -4  10 210.890 6.17026   2
   2   4 -10 31.4021 1.52074   2
   2   4 -10 36.3534 11.0740   1
  -2  -4  10 33.0008 1.50548   2
  -2  -4  10 34.0753 9.73215   1
   1   4 -10 5.65588 0.64294   2
  -1  -4  10 2.80860 7.24010   1
  -1  -4  10 7.12705 0.65243   2
   0   4 -10 -2.7368 8.04300   1
   0  -4  10 -4.9891 6.16221   1
  -1   4 -10 211.857 19.7385   1
   1  -4  10 211.838 5.89267   2
   1  -4  10 211.804 22.9520   1
   1  -4  10 221.084 5.92216   2
  -2   4 -10 273.761 22.9230   1
   2  -4  10 256.626 7.15373   2
   2  -4  10 273.142 22.1007   1
   2  -4  10 254.694 7.15157   2
  -3   4 -10 387.741 28.4856   1
   3  -4  10 382.251 10.6061   2
   3  -4  10 373.057 27.1819   1
   3  -4  10 394.206 10.6186   2
  -4   4 -10 29.9963 12.7668   1
   4  -4  10 3.88687 0.89595   2
   4  -4  10 -8.3994 12.4847   1
  -5   4 -10 -2.8341 13.4437   1
  -5   4 -10 0.01360 0.90317   3
   5  -4  10 0.12678 0.88407   2
   5  -4  10 -6.1629 13.4543   1
  -6   4 -10 29.9135 18.9383   1
  -6   4 -10 38.5866 2.47348   3
   6  -4  10 40.8945 2.55112   2
   6  -4  10 23.1663 21.4778   1
  -7   4 -10 38.8644 27.6790   1
  -7   4 -10 36.0237 2.55791   3
   7  -4  10 43.1320 2.74356   2
   7  -4  10 46.6814 24.7934   1
  -8   4 -10 25.6377 36.1535   1
  -8   4 -10 20.3208 2.18870   3
   8  -4  10 27.0714 2.61188   2
   8  -4  10 -28.210 34.9540   1
   9  -4  10 -1.3991 62.2304   1
  10   3 -10 -0.0175 1.51644   2
 -10  -3  10 1.07834 1.90348   3
   9   3 -10 37.2298 27.6484   1
   9   3 -10 11.6722 2.00421   2
  -9  -3  10 16.0131 3.13777   3
   8   3 -10 5.89431 1.74394   2
   8   3 -10 -20.041 20.0404   1
   8   3 -10 -12.281 19.1849   1
  -8  -3  10 1.43063 1.52408   3
   7   3 -10 -22.174 17.3565   1
   7   3 -10 2.47141 14.8419   1
   7   3 -10 2.27305 1.30587   2
  -7  -3  10 5.10757 1.86716   3
   6   3 -10 -0.0334 0.98514   2
   6   3 -10 4.83438 13.0135   1
  -6  -3  10 -1.8063 0.83768   2
  -6  -3  10 -0.0123 1.26813   3
   5   3 -10 106.932 17.2147   1
   5   3 -10 104.892 4.12412   2
  -5  -3  10 98.1507 4.75274   3
  -5  -3  10 107.104 4.00653   2
   4   3 -10 108.859 19.0871   1
   4   3 -10 113.442 4.18793   2
  -4  -3  10 120.167 4.87654   3
  -4  -3  10 116.777 4.11484   2
   3   3 -10 588.763 15.7848   2
  -3  -3  10 588.736 16.1950   2
  -3  -3  10 573.966 16.5645   3
  -3  -3  10 561.097 30.2661   1
   2   3 -10 393.466 28.7093   1
   2   3 -10 376.012 10.3978   2
  -2  -3  10 394.836 24.1770   1
  -2  -3  10 368.870 11.0957   3
  -2  -3  10 375.997 10.3619   2
   1   3 -10 -1.8329 6.18462   1
   1   3 -10 0.49435 0.52864   2
  -1  -3  10 3.11872 6.46125   1
  -1  -3  10 1.68300 0.87604   3
  -1  -3  10 0.71520 0.50223   2
   0   3 -10 15.5499 7.99874   1
   0  -3  10 14.2374 1.00596   2
   0  -3  10 17.3900 7.68807   1
  -1   3 -10 36.4373 9.75949   1
   1  -3  10 62.3459 10.9751   1
   1  -3  10 51.8524 1.91518   2
  -2   3 -10 578.197 31.5208   1
   2  -3  10 563.314 15.2571   2
   2  -3  10 583.315 15.2728   2
   2  -3  10 565.297 30.5140   1
  -3   3 -10 147.395 18.4465   1
   3  -3  10 178.353 18.6592   1
   3  -3  10 153.704 4.89563   2
   3  -3  10 163.768 4.91122   2
  -4   3 -10 28.9647 11.7393   1
   4  -3  10 -2.0724 10.8315   1
   4  -3  10 11.7180 1.20438   2
   4  -3  10 10.1488 1.22957   2
  -5   3 -10 325.306 9.51441   3
  -5   3 -10 316.455 29.9357   1
   5  -3  10 316.867 28.6800   1
   5  -3  10 336.018 9.61742   2
  -6   3 -10 16.6778 1.63823   3
  -6   3 -10 40.8036 15.4001   1
   6  -3  10 17.6678 1.76232   2
   6  -3  10 48.3279 17.3293   1
  -7   3 -10 114.772 4.40682   3
  -7   3 -10 144.642 27.2352   1
   7  -3  10 141.684 25.8326   1
   7  -3  10 119.142 4.74309   2
  -8   3 -10 39.2558 2.49774   3
   8  -3  10 43.8546 3.35025   2
   8  -3  10 37.5549 26.2574   1
   9  -3  10 51.7517 37.2727   1
   9  -3  10 51.8875 3.54888   2
   9   2 -10 27.0329 2.83430   2
   9   2 -10 23.6607 32.3629   1
  -9  -2  10 19.2121 2.80306   3
   8   2 -10 -19.320 22.9618   1
   8   2 -10 3.07211 1.48628   2
   8   2 -10 43.6608 21.9527   1
  -8  -2  10 4.28769 2.10359   3
   7   2 -10 67.7567 3.74238   2
   7   2 -10 62.8326 19.7816   1
   7   2 -10 17.6549 17.0167   1
  -7  -2  10 70.9547 4.35701   3
   6   2 -10 2.37359 13.7464   1
   6   2 -10 -1.7170 11.8825   1
   6   2 -10 -0.0066 1.04224   2
  -6  -2  10 0.47760 1.55645   3
   5   2 -10 29.6638 12.0975   1
   5   2 -10 30.0628 2.37809   2
   5   2 -10 38.2495 13.5638   1
  -5  -2  10 21.5209 1.93156   2
  -5  -2  10 22.3403 2.46462   3
   4   2 -10 7.32702 1.31554   2
   4   2 -10 -1.8542 8.03780   1
  -4  -2  10 6.98843 1.33496   3
  -4  -2  10 7.84080 1.25077   2
   3   2 -10 10.4440 1.25889   2
   3   2 -10 24.8944 9.81352   1
  -3  -2  10 6.93437 1.23590   3
  -3  -2  10 8.19475 7.67129   1
  -3  -2  10 10.5505 1.21490   2
   2   2 -10 203.099 6.04966   2
   2   2 -10 193.442 17.8266   1
  -2  -2  10 201.033 6.03128   2
  -2  -2  10 198.431 6.52770   3
  -2  -2  10 197.784 17.0691   1
   1   2 -10 84.3242 12.4028   1
   1   2 -10 113.711 3.68262   2
  -1  -2  10 115.372 4.09113   3
  -1  -2  10 113.969 3.63602   2
  -1  -2  10 117.950 16.8768   1
   0   2 -10 4.04884 6.84784   1
   0   2 -10 1.21775 0.60738   2
   0  -2  10 -2.1265 5.58533   1
   0  -2  10 0.28311 0.50415   2
   0  -2  10 0.51232 0.67320   3
  -1   2 -10 14.1373 6.79536   1
   1  -2  10 13.4981 1.11009   2
   1  -2  10 15.1362 6.90389   1
  -2   2 -10 5.44708 6.87017   1
   2  -2  10 1.58643 6.43395   1
   2  -2  10 6.32743 0.83356   2
  -3   2 -10 252.522 20.4639   1
   3  -2  10 293.473 8.19265   2
   3  -2  10 299.606 21.6663   1
   3  -2  10 286.299 8.20706   2
  -4   2 -10 23.4774 9.62582   1
   4  -2  10 35.2226 2.06143   2
   4  -2  10 34.8109 1.94651   2
   4  -2  10 35.3631 10.6339   1
  -5   2 -10 7.17201 10.2048   1
   5  -2  10 3.34579 1.06320   2
   5  -2  10 7.59515 10.9912   1
   5  -2  10 2.18977 0.92822   2
  -6   2 -10 7.63718 1.11418   3
  -6   2 -10 -4.3538 12.9825   1
   6  -2  10 7.55547 1.36509   2
   6  -2  10 32.9434 15.2757   1
  -7   2 -10 -0.2082 0.86037   3
  -7   2 -10 -4.6390 14.9560   1
   7  -2  10 -5.2172 17.4228   1
   7  -2  10 0.34098 1.07891   2
  -8   2 -10 37.8485 2.26211   3
  -8   2 -10 97.5913 26.8383   1
   8  -2  10 42.0568 2.98264   2
   8  -2  10 73.0744 23.1672   1
  -9   2 -10 95.2666 3.80894   3
   9  -2  10 90.2880 4.55483   2
   9  -2  10 111.447 52.3284   1
 -10   2 -10 8.06137 1.36841   3
  10  -2  10 -0.0495 1.48523   2
   9   1 -10 1.55791 1.57751   2
  -9  -1  10 0.03616 1.73546   3
   8   1 -10 -55.186 24.4786   1
   8   1 -10 -6.8216 25.7237   1
   8   1 -10 0.25751 1.38896   2
  -8  -1  10 1.35504 1.95235   3
   7   1 -10 -9.0916 17.6369   1
   7   1 -10 8.90217 19.4211   1
   7   1 -10 8.96099 2.11270   2
  -7  -1  10 8.00715 2.06586   3
   6   1 -10 27.7555 15.3903   1
   6   1 -10 2.30504 15.7652   1
   6   1 -10 15.6598 2.05056   2
  -6  -1  10 15.6067 2.13775   3
   5   1 -10 13.0452 12.4297   1
   5   1 -10 13.8375 1.81338   2
   5   1 -10 -7.6318 10.4364   1
  -5  -1  10 10.6388 1.46763   2
   4   1 -10 107.027 4.16340   2
   4   1 -10 89.2981 15.2346   1
   4   1 -10 135.896 18.1980   1
  -4  -1  10 106.090 4.05640   2
  -4  -1  10 102.655 4.52662   3
   3   1 -10 157.030 17.5778   1
   3   1 -10 184.900 5.84962   2
  -3  -1  10 178.400 6.21775   3
  -3  -1  10 172.030 5.70069   2
  -3  -1  10 198.337 18.2839   1
   2   1 -10 798.016 21.9408   2
   2   1 -10 804.092 36.6698   1
  -2  -1  10 829.807 22.3328   3
  -2  -1  10 856.068 36.8090   1
  -2  -1  10 813.119 21.8704   2
   1   1 -10 310.760 20.4119   1
   1   1 -10 295.907 8.54348   2
  -1  -1  10 295.564 8.51046   2
  -1  -1  10 306.126 20.4259   1
  -1  -1  10 301.231 8.82693   3
   0   1 -10 23.7643 1.49048   2
   0   1 -10 9.60532 6.56549   1
   0  -1  10 26.6276 7.66049   1
   0  -1  10 22.4724 1.50902   3
   0  -1  10 27.1165 1.47204   2
  -1   1 -10 1.97385 6.16601   1
  -1   1 -10 0.30004 0.53661   2
   1  -1  10 6.08106 6.12252   1
   1  -1  10 1.38829 0.59601   2
  -2   1 -10 197.347 16.2487   1
   2  -1  10 213.697 16.8006   1
   2  -1  10 194.366 5.85179   2
  -3   1 -10 1051.49 43.3268   1
   3  -1  10 1010.69 42.4869   1
  -4   1 -10 57.3042 11.4510   1
   4  -1  10 53.3300 11.7527   1
   4  -1  10 57.9327 2.51779   2
   4  -1  10 52.5039 2.62840   2
  -5   1 -10 64.4941 13.5808   1
   5  -1  10 46.9357 2.48143   2
   5  -1  10 39.3250 12.0923   1
   5  -1  10 50.7780 2.64980   2
  -6   1 -10 53.0664 15.3677   1
   6  -1  10 23.8752 2.26186   2
   6  -1  10 14.4208 12.4733   1
  -7   1 -10 67.8196 17.7995   1
   7  -1  10 58.7480 3.21412   2
   7  -1  10 76.0717 18.2782   1
  -8   1 -10 -5.7493 18.3154   1
   8  -1  10 -2.5587 17.6142   1
   8  -1  10 2.78093 1.27774   2
  -9   1 -10 115.424 27.6878   1
   9  -1  10 160.585 30.3547   1
   9  -1  10 128.001 5.51697   2
  10  -1  10 12.5888 2.21203   2
   9   0 -10 10.0437 37.1982   1
   9   0 -10 8.50343 1.98479   2
  -9   0  10 6.81676 2.37015   3
   8   0 -10 29.6766 2.86250   2
   8   0 -10 46.1318 30.2445   1
   8   0 -10 41.9709 29.7011   1
  -8   0  10 34.0789 3.59691   3
   7   0 -10 -1.0309 18.8913   1
   7   0 -10 33.0016 24.3293   1
   7   0 -10 19.3196 2.29929   2
  -7   0  10 19.5422 2.72872   3
   6   0 -10 -5.0184 27.7059   1
   6   0 -10 0.04431 14.3881   1
   6   0 -10 0.37100 1.09286   2
  -6   0  10 2.82614 1.53688   3
   5   0 -10 145.235 20.1537   1
   5   0 -10 141.840 5.33230   2
   5   0 -10 155.266 22.8646   1
  -5   0  10 136.863 5.75312   2
  -5   0  10 127.023 5.60317   3
   4   0 -10 59.0876 13.6826   1
   4   0 -10 62.4518 3.17383   2
   4   0 -10 72.9776 14.5674   1
  -4   0  10 53.0822 2.92951   2
  -4   0  10 62.4351 3.40471   3
   3   0 -10 417.854 11.5497   2
   3   0 -10 367.350 26.3689   1
  -3   0  10 398.351 11.8691   3
  -3   0  10 385.536 11.3998   2
   2   0 -10 78.7072 12.1704   1
   2   0 -10 72.9519 3.09626   2
  -2   0  10 68.2272 2.96209   2
  -2   0  10 97.9217 14.3090   1
  -2   0  10 76.2209 3.26239   3
   1   0 -10 46.0676 9.51354   1
   1   0 -10 48.4536 2.32883   2
  -1   0  10 26.8105 7.97624   1
  -1   0  10 44.2353 2.15025   2
  -1   0  10 45.3278 2.30963   3
   0   0 -10 378.609 10.6256   2
   0   0 -10 387.970 22.0663   1
   0   0  10 404.961 23.2527   1
   0   0  10 366.394 10.6458   3
  -1   0 -10 29.5692 1.72583   2
  -1   0 -10 37.2636 8.20460   1
   1   0  10 30.8881 1.48623   3
   1   0  10 32.7556 8.09138   1
   1   0  10 30.0188 1.68162   2
  -2   0 -10 102.316 12.0573   1
   2   0  10 94.6006 12.2297   1
   2   0  10 92.5556 3.56401   2
  -3   0 -10 145.469 14.1064   1
   3   0  10 132.277 4.39236   2
   3   0  10 140.527 14.5457   1
  -4   0 -10 5.84360 7.11970   1
   4   0  10 5.80976 1.02320   2
   4   0  10 -3.8643 6.63797   1
  -5   0 -10 424.756 25.7083   1
   5   0  10 398.490 11.7413   2
   5   0  10 408.043 11.8119   2
   5   0  10 449.203 28.5248   1
  -6   0 -10 -13.705 16.0291   1
   6   0  10 2.56375 1.13353   2
   6   0  10 7.70800 10.1144   1
   6   0  10 3.06740 0.99976   2
  -7   0 -10 61.3159 14.8794   1
   7   0  10 30.6221 13.7673   1
   7   0  10 37.6205 2.73164   2
  -8   0 -10 19.7837 15.1639   1
   8   0  10 27.9767 2.62482   2
   8   0  10 19.1648 16.7481   1
  -9   0 -10 4.30276 18.9141   1
   9   0  10 2.96115 1.38534   2
   9   0  10 -0.2479 20.3272   1
  10   0  10 1.92330 1.47477   2
  11   0  10 12.1403 2.30088   2
   9  -1 -10 1.69310 1.83821   2
  -9   1  10 -0.0341 2.14229   3
   8  -1 -10 14.5600 32.5998   1
   8  -1 -10 15.6171 28.8017   1
   7  -1 -10 5.30982 24.6749   1
   7  -1 -10 19.1578 2.30166   2
   7  -1 -10 24.7094 23.6195   1
  -7   1  10 25.4529 3.12810   3
   6  -1 -10 -9.4465 15.7439   1
   6  -1 -10 2.44063 18.0176   1
   5  -1 -10 -4.6984 13.6431   1
   5  -1 -10 -0.5285 13.0840   1
   5  -1 -10 4.64032 1.25192   2
  -5   1  10 3.38998 1.55134   3
   4  -1 -10 8.87767 10.2054   1
   4  -1 -10 20.5589 12.7105   1
   4  -1 -10 12.5616 1.51251   2
  -4   1  10 8.69845 1.71824   3
  -4   1  10 15.6888 1.73259   2
   3  -1 -10 175.197 18.4794   1
   3  -1 -10 192.932 20.2009   1
   3  -1 -10 173.958 5.89805   2
  -3   1  10 169.460 5.79243   2
  -3   1  10 168.369 6.13732   3
   2  -1 -10 35.8683 10.1522   1
   2  -1 -10 33.6944 2.23726   2
  -2   1  10 33.1690 2.21978   3
  -2   1  10 49.0726 10.8889   1
  -2   1  10 33.7832 2.08251   2
   1  -1 -10 32.7804 8.52343   1
   1  -1 -10 37.9254 2.19913   2
  -1   1  10 31.7258 1.96517   2
  -1   1  10 35.0052 2.07467   3
  -1   1  10 30.9072 8.45974   1
   0  -1 -10 163.943 15.6533   1
   0  -1 -10 154.504 5.04710   2
   0   1  10 149.404 14.2822   1
   0   1  10 159.234 5.02600   2
   0   1  10 153.983 4.92364   3
  -1  -1 -10 262.889 18.0387   1
   1   1  10 288.968 8.28226   2
   1   1  10 308.085 18.9422   1
   1   1  10 283.900 8.02180   3
  -2  -1 -10 6.56681 5.49431   1
   2   1  10 9.67401 1.04420   2
   2   1  10 17.9456 6.63305   1
  -3  -1 -10 6.38249 5.89942   1
   3   1  10 15.6452 6.52004   1
   3   1  10 9.83753 1.06574   2
  -4  -1 -10 -1.3334 5.35656   1
   4   1  10 11.0791 7.38725   1
   4   1  10 1.05336 0.71698   2
  -5  -1 -10 291.935 21.0204   1
   5   1  10 292.545 22.7225   1
   5   1  10 277.338 8.50499   2
   5   1  10 272.492 8.38710   2
   6   1  10 17.2319 10.5299   1
   6   1  10 22.4535 2.03233   2
   6   1  10 25.2601 2.22866   2
  -7  -1 -10 41.0859 13.7225   1
   7   1  10 49.8938 13.8135   1
   7   1  10 51.6298 3.07471   2
   7   1  10 48.3051 2.82031   2
  -8  -1 -10 9.54090 13.9081   1
   8   1  10 9.11453 15.0990   1
   8   1  10 4.39441 1.46182   2
   9   1  10 79.7794 22.8110   1
   9   1  10 84.7518 4.99306   2
  10   1  10 14.8045 2.08806   2
  11   1  10 12.2524 2.26415   2
   8  -2 -10 -27.612 42.1840   1
   8  -2 -10 -6.1446 36.2346   1
  -8   2  10 8.43556 2.58826   3
   7  -2 -10 0.86770 1.41730   2
   7  -2 -10 -21.352 23.3724   1
   7  -2 -10 36.2738 28.7230   1
  -7   2  10 2.71864 1.80773   3
   6  -2 -10 67.7155 3.94004   2
   6  -2 -10 44.5781 19.8388   1
   6  -2 -10 58.3240 23.0570   1
  -6   2  10 66.1597 4.26602   3
   5  -2 -10 14.1352 14.2394   1
   5  -2 -10 17.0538 15.7868   1
   4  -2 -10 17.4324 1.85788   2
   4  -2 -10 11.8211 12.4904   1
   4  -2 -10 2.55242 11.7579   1
  -4   2  10 16.3353 2.66641   3
   3  -2 -10 -0.6084 0.96181   2
   3  -2 -10 -2.8251 8.43310   1
   3  -2 -10 6.22125 9.85507   1
  -3   2  10 0.31786 0.96574   2
  -3   2  10 1.43699 1.15612   3
   2  -2 -10 53.3658 2.76558   2
   2  -2 -10 39.9518 10.0205   1
   2  -2 -10 58.6859 13.3306   1
  -2   2  10 46.8223 2.54488   2
  -2   2  10 47.2201 2.72293   3
   1  -2 -10 7.30798 1.12759   2
   1  -2 -10 -4.3307 5.87534   1
  -1   2  10 10.8754 1.55231   3
  -1   2  10 8.59301 1.12457   2
  -1   2  10 7.55827 7.47789   1
   0  -2 -10 167.527 5.61826   2
   0  -2 -10 176.253 15.6692   1
   0   2  10 174.673 5.55564   3
   0   2  10 180.892 5.64740   2
   0   2  10 188.040 15.8817   1
  -1  -2 -10 339.980 20.1621   1
   1   2  10 369.201 10.5498   2
   1   2  10 368.665 22.0376   1
   1   2  10 388.145 10.3322   3
  -2  -2 -10 74.2176 10.2861   1
   2   2  10 96.5350 2.92974   3
   2   2  10 92.8102 3.45131   2
   2   2  10 87.1249 11.7879   1
  -3  -2 -10 -2.3474 4.96336   1
   3   2  10 2.67058 4.94041   1
   3   2  10 1.24334 0.60974   2
  -4  -2 -10 37.5016 8.49712   1
   4   2  10 45.1683 9.60241   1
   4   2  10 41.2218 2.24317   2
  -5  -2 -10 12.4704 7.78855   1
   5   2  10 22.9617 9.03984   1
   5   2  10 21.0891 1.84242   2
  -6  -2 -10 128.812 24.5885   1
   6   2  10 121.048 4.71709   2
   6   2  10 119.497 4.53252   2
  -7  -2 -10 281.220 22.2744   1
   7   2  10 244.278 8.06952   2
   7   2  10 239.464 7.94498   2
   7   2  10 245.602 23.7632   1
  -8  -2 -10 41.5627 13.7527   1
   8   2  10 46.6473 14.4869   1
   8   2  10 58.9525 3.51970   2
  -9  -2 -10 11.8882 18.0790   1
   9   2  10 23.6008 17.7662   1
   9   2  10 17.6681 3.80098   2
  10   2  10 97.9411 4.89692   2
  10   2  10 110.969 30.5895   1
  11   2  10 0.72789 1.58481   2
   8  -3 -10 2.28156 1.72497   2
   8  -3 -10 -0.2094 56.9437   1
  -8   3  10 1.32005 2.04212   3
   7  -3 -10 9.14974 31.2368   1
   7  -3 -10 -2.6521 1.52875   2
   7  -3 -10 -25.629 35.4622   1
  -7   3  10 1.39874 1.81243   3
   6  -3 -10 43.9680 3.58078   2
   6  -3 -10 32.2257 24.2469   1
   6  -3 -10 36.2363 25.0029   1
  -6   3  10 57.6552 4.10599   3
   5  -3 -10 11.0583 15.6357   1
   5  -3 -10 -1.7230 18.3823   1
   5  -3 -10 2.91739 2.89995   2
  -5   3  10 3.21938 1.60272   3
   4  -3 -10 2.49116 12.9604   1
   4  -3 -10 13.8710 1.88958   2
   4  -3 -10 11.8857 13.3364   1
  -4   3  10 11.6694 1.86402   3
   3  -3 -10 7.69743 11.7624   1
   3  -3 -10 8.36848 1.53218   2
   3  -3 -10 4.59051 11.3909   1
  -3   3  10 4.51631 1.24482   2
  -3   3  10 9.86617 1.72738   3
   2  -3 -10 66.0050 13.0981   1
   2  -3 -10 73.3059 14.2154   1
   2  -3 -10 57.4218 3.15248   2
  -2   3  10 67.7130 3.33656   3
  -2   3  10 65.2480 3.49147   2
   1  -3 -10 183.803 17.7068   1
   1  -3 -10 190.985 6.23142   2
   1  -3 -10 190.382 18.0822   1
  -1   3  10 185.736 6.25335   3
  -1   3  10 182.776 6.08561   2
   0  -3 -10 354.274 10.2099   2
   0  -3 -10 356.270 22.3050   1
   0  -3 -10 339.357 21.7912   1
   0   3  10 347.567 10.1486   3
   0   3  10 343.018 10.1564   2
   0   3  10 346.426 22.2352   1
  -1  -3 -10 43.5512 2.36140   2
  -1  -3 -10 29.7765 7.58074   1
   1   3  10 38.3720 2.17658   2
   1   3  10 42.2456 2.04436   3
   1   3  10 40.8119 8.84058   1
  -2  -3 -10 32.3791 2.09972   2
  -2  -3 -10 36.2270 7.62886   1
   2   3  10 32.1200 1.98939   2
   2   3  10 36.2898 8.76573   1
   2   3  10 32.3965 1.55721   3
  -3  -3 -10 2.30815 5.17318   1
   3   3  10 -2.1229 5.65263   1
  -4  -3 -10 5.06223 5.71502   1
   4   3  10 9.35842 6.83202   1
  -5  -3 -10 35.0249 8.31837   1
   5   3  10 54.4386 10.0391   1
   5   3  10 45.1726 2.49595   2
  -6  -3 -10 35.0511 10.3723   1
   6   3  10 37.7020 10.8510   1
   6   3  10 36.2728 2.39380   2
  -7  -3 -10 422.521 24.5386   1
   7   3  10 378.356 12.0775   2
   7   3  10 429.312 12.3466   2
   7   3  10 432.367 27.8199   1
  -8  -3 -10 8.34226 10.1800   1
   8   3  10 -5.2543 11.5477   1
   8   3  10 3.07617 1.33201   2
  -9  -3 -10 134.320 18.9088   1
   9   3  10 131.995 20.9295   1
   9   3  10 129.646 7.48171   2
 -10  -3 -10 16.4976 27.7804   1
  10   3  10 -10.984 20.0743   1
  10   3  10 9.28590 1.92444   2
  11   3  10 17.4476 2.43262   2
  12   3  10 6.77506 2.32434   2
   7  -4 -10 8.81297 2.11081   2
   7  -4 -10 -7.7555 40.0496   1
  -7   4  10 2.27015 2.18113   3
   6  -4 -10 61.1963 44.8695   1
   6  -4 -10 28.8531 27.8851   1
   6  -4 -10 27.0600 2.70366   2
  -6   4  10 28.7546 3.50296   3
   5  -4 -10 -7.8759 20.1813   1
   5  -4 -10 38.5112 19.6842   1
   5  -4 -10 0.72248 1.33751   2
  -5   4  10 -0.5046 1.45423   3
   4  -4 -10 119.481 21.1011   1
   4  -4 -10 147.320 5.86889   2
   4  -4 -10 140.146 24.7916   1
  -4   4  10 150.776 6.35148   3
   3  -4 -10 7.55974 12.5310   1
   3  -4 -10 25.5328 12.6124   1
   3  -4 -10 34.4992 2.68302   2
  -3   4  10 28.5249 2.63890   3
   2  -4 -10 110.193 4.44607   2
   2  -4 -10 84.6720 15.2839   1
  -2   4  10 105.694 4.60493   3
  -2   4  10 104.704 4.31294   2
   1  -4 -10 7.69539 8.66125   1
   1  -4 -10 14.2449 8.35528   1
   1  -4 -10 15.8342 1.66949   2
  -1   4  10 17.1157 1.83634   2
  -1   4  10 19.3148 2.13405   3
   0  -4 -10 -0.4672 0.82750   2
   0  -4 -10 4.93045 7.01043   1
   0   4  10 0.25731 0.79534   2
   0   4  10 0.15630 0.87248   3
  -1  -4 -10 4.07626 6.16749   1
  -1  -4 -10 6.97190 6.41786   1
  -1  -4 -10 16.9133 1.66418   2
   1   4  10 14.5635 7.41184   1
   1   4  10 19.3667 1.74792   2
   1   4  10 15.5326 1.50550   3
  -2  -4 -10 37.5433 2.29368   2
  -2  -4 -10 38.8395 7.48095   1
   2   4  10 40.5496 9.22586   1
   2   4  10 34.5052 1.81805   3
   2   4  10 33.6238 2.16630   2
  -3  -4 -10 141.157 4.85793   2
  -3  -4 -10 139.655 11.7978   1
   3   4  10 134.971 4.74626   2
   3   4  10 130.207 13.3580   1
   3   4  10 133.355 4.12728   3
  -4  -4 -10 11.8233 5.68360   1
   4   4  10 7.28211 6.00632   1
   4   4  10 10.1479 1.20937   2
  -5  -4 -10 50.5979 8.52137   1
   5   4  10 47.9944 2.65049   2
   5   4  10 61.1728 10.0882   1
  -6  -4 -10 6.16081 6.27934   1
   6   4  10 2.58596 6.91525   1
  -7  -4 -10 47.9812 10.2365   1
   7   4  10 37.9927 11.4748   1
   7   4  10 51.2357 3.08676   2
   7   4  10 37.7107 2.95715   2
  -8  -4 -10 265.344 20.3078   1
   8   4  10 200.448 22.6381   1
   8   4  10 255.531 8.45174   2
  -9  -4 -10 14.4622 12.1060   1
   9   4  10 -6.3752 13.6595   1
   9   4  10 -2.0980 2.21542   2
 -10  -4 -10 -2.3498 15.4538   1
  10   4  10 3.84965 1.63771   2
  10   4  10 10.7802 20.3307   1
  11   4  10 6.47863 1.96793   2
  12   4  10 10.5178 2.33402   2
   6  -5 -10 45.5440 35.0739   1
   5  -5 -10 -9.9643 39.7874   1
   5  -5 -10 -9.7122 23.1526   1
   5  -5 -10 1.13634 1.32306   2
  -5   5  10 0.24145 1.58199   3
   4  -5 -10 29.1525 17.6644   1
   4  -5 -10 5.25181 19.4089   1
   4  -5 -10 30.2886 2.91552   2
  -4   5  10 34.4472 3.24152   3
   3  -5 -10 2.64483 1.34123   2
   3  -5 -10 -21.413 11.9946   1
   3  -5 -10 21.2807 16.2350   1
  -3   5  10 5.51969 1.94190   3
   2  -5 -10 6.95520 1.48650   2
   2  -5 -10 9.97625 10.0478   1
   2  -5 -10 9.43147 13.0028   1
  -2   5  10 6.16183 1.51705   3
   1  -5 -10 59.8847 13.1966   1
   1  -5 -10 46.0827 21.2064   1
   1  -5 -10 70.4491 3.50264   2
  -1   5  10 61.1323 3.24799   2
  -1   5  10 72.7683 3.58290   3
   0  -5 -10 32.4338 10.1821   1
   0  -5 -10 25.7292 2.24581   2
   0   5  10 23.3135 2.09305   3
  -1  -5 -10 2.10723 7.30899   1
  -1  -5 -10 2.24488 1.00652   2
  -1  -5 -10 -6.8799 5.70064   1
   1   5  10 2.08623 1.05059   3
   1   5  10 0.00263 0.84799   2
  -2  -5 -10 359.731 10.3918   2
  -2  -5 -10 342.427 19.4891   1
   2   5  10 339.814 10.2678   2
   2   5  10 342.008 21.4595   1
   2   5  10 349.340 10.0282   3
  -3  -5 -10 84.0507 12.0595   1
  -3  -5 -10 63.8958 8.86955   1
  -3  -5 -10 83.6002 3.49835   2
   3   5  10 79.1793 2.94214   3
   3   5  10 78.8667 3.38947   2
   3   5  10 75.4585 11.0381   1
  -4  -5 -10 169.900 12.6161   1
   4   5  10 190.022 6.21229   2
   4   5  10 184.796 5.45371   3
   4   5  10 206.165 15.6388   1
  -5  -5 -10 52.6156 7.58985   1
   5   5  10 45.2951 2.64648   2
   5   5  10 52.3840 9.54284   1
  -6  -5 -10 13.2730 5.77143   1
   6   5  10 15.4795 1.73460   2
   6   5  10 5.84724 7.66800   1
  -7  -5 -10 6.23743 6.07901   1
   7   5  10 -4.2198 8.22631   1
  -8  -5 -10 50.6650 9.44130   1
   8   5  10 67.1011 3.71736   2
   8   5  10 55.9987 12.8571   1
  -9  -5 -10 -5.9313 8.86570   1
   9   5  10 14.1502 14.9543   1
 -10  -5 -10 3.93193 11.7262   1
  10   5  10 3.12800 1.57785   2
  11   5  10 3.22817 1.88370   2
  12   5  10 5.94709 2.34525   2
   6  -6 -10 -1.0506 1.57137   2
  -6   6  10 -1.2870 1.73355   3
   5  -6 -10 1.39512 32.5111   1
   5  -6 -10 1.61443 1.35171   2
  -5   6  10 -0.7364 1.67377   3
   4  -6 -10 -0.2461 1.13748   2
   4  -6 -10 -0.5216 23.1225   1
   4  -6 -10 7.75159 21.8646   1
  -4   6  10 1.24026 1.82674   3
   3  -6 -10 18.4274 15.2917   1
   3  -6 -10 -11.850 15.8561   1
   3  -6 -10 2.88216 1.47898   2
  -3   6  10 6.17073 1.75998   3
   2  -6 -10 62.3841 3.62926   2
   2  -6 -10 38.6164 14.5831   1
   2  -6 -10 54.9119 15.5184   1
  -2   6  10 60.1822 3.77718   3
   1  -6 -10 31.0623 11.5441   1
   1  -6 -10 4.42926 10.9332   1
   1  -6 -10 31.5037 2.64390   2
  -1   6  10 35.0319 4.51814   3
   0  -6 -10 154.904 18.8687   1
   0  -6 -10 149.185 16.3775   1
   0  -6 -10 137.150 5.18651   2
   0   6  10 125.279 5.05053   2
   0   6  10 134.181 5.26404   3
  -1  -6 -10 64.1142 3.37586   2
  -1  -6 -10 59.9444 10.7059   1
   1   6  10 74.3135 3.39403   3
   1   6  10 72.0786 3.40755   2
  -2  -6 -10 107.484 13.3290   1
  -2  -6 -10 113.866 12.6271   1
  -2  -6 -10 125.704 4.77490   2
   2   6  10 127.164 4.56849   3
  -3  -6 -10 117.747 18.1675   1
  -3  -6 -10 146.728 5.25644   2
  -3  -6 -10 136.381 12.5666   1
   3   6  10 142.508 4.79952   3
   3   6  10 142.946 5.38776   2
   3   6  10 150.156 14.5691   1
  -4  -6 -10 56.0397 3.10475   2
  -4  -6 -10 61.1952 8.66331   1
  -4  -6 -10 52.4939 7.17596   1
   4   6  10 59.9303 2.45493   3
   4   6  10 66.2076 10.4723   1
  -5  -6 -10 118.567 7.54545   1
  -5  -6 -10 130.517 7.88201   1
   5   6  10 127.149 4.02998   3
   5   6  10 124.611 13.2625   1
   5   6  10 133.820 4.92067   2
   6   6  10 170.552 15.2120   1
   6   6  10 141.551 5.45613   2
   7   6  10 -7.7642 7.48139   1
   8   6  10 43.1859 11.3409   1
   8   6  10 43.3060 3.24208   2
   9   6  10 4.13307 1.63354   2
  10   6  10 49.1171 3.74218   2
  11   6  10 7.37014 1.92377   2
  12   6  10 1.59799 2.09232   2
   5  -7 -10 -4.0010 2.79903   2
  -5   7  10 0.79483 1.99979   3
   4  -7 -10 -10.150 28.5020   1
   4  -7 -10 5.93972 1.77122   2
  -4   7  10 7.80417 2.18215   3
   3  -7 -10 -3.4791 21.3337   1
   3  -7 -10 33.1791 3.15340   2
   3  -7 -10 50.4352 22.1554   1
  -3   7  10 31.3638 3.72090   3
   2  -7 -10 2.66048 1.49502   2
   2  -7 -10 -34.413 22.0472   1
   2  -7 -10 5.66857 22.8028   1
  -2   7  10 4.15817 1.71140   3
   1  -7 -10 64.3232 17.3475   1
   1  -7 -10 43.3851 13.3515   1
   1  -7 -10 52.0723 3.24806   2
  -1   7  10 40.2432 3.22597   3
   0  -7 -10 6.72898 9.07390   1
   0  -7 -10 1.13161 1.09668   2
   0   7  10 1.84357 1.48561   3
  -1  -7 -10 107.512 13.5335   1
  -1  -7 -10 92.6124 14.0528   1
  -1  -7 -10 121.056 4.76704   2
   1   7  10 119.034 4.87956   3
  -2  -7 -10 54.3940 9.27016   1
  -2  -7 -10 74.9054 11.2396   1
  -2  -7 -10 74.2401 3.56239   2
   2   7  10 73.9889 3.46003   3
   2   7  10 65.2490 3.33191   2
  -3  -7 -10 0.92327 1.02113   2
  -3  -7 -10 6.96162 6.00388   1
  -3  -7 -10 5.46342 5.20825   1
   3   7  10 1.70551 1.02398   2
   3   7  10 2.62978 1.05537   3
  -4  -7 -10 1.59935 1.19711   2
  -4  -7 -10 0.63145 3.22416   1
   4   7  10 1.59489 0.97869   2
   4   7  10 0.81843 0.83814   3
   4   7  10 -13.508 6.82973   1
   5   7  10 84.6557 3.83507   2
   5   7  10 87.6285 11.1775   1
   6   7  10 563.506 25.8775   1
   7   7  10 7.43002 8.03159   1
   8   7  10 10.1219 9.28603   1
   9   7  10 7.20250 11.2776   1
   9   7  10 6.62687 1.82231   2
  10   7  10 -0.2766 1.40985   2
  11   7  10 0.83689 1.64800   2
  12   7  10 2.47499 1.91283   2
   4  -8 -10 9.82962 2.16135   2
  -4   8  10 15.4590 3.15699   3
   3  -8 -10 1.22843 1.39107   2
  -3   8  10 2.61306 1.85211   3
   2  -8 -10 74.0845 4.16852   2
   2  -8 -10 72.9823 21.9712   1
  -2   8  10 71.7286 4.65127   3
   1  -8 -10 115.681 19.2247   1
   1  -8 -10 131.870 5.53900   2
  -1   8  10 132.493 6.00217   3
   0  -8 -10 11.3980 11.3164   1
   0  -8 -10 20.5149 13.8274   1
   0  -8 -10 12.3707 1.92909   2
   0   8  10 11.7127 2.29167   3
  -1  -8 -10 7.61207 1.47769   2
  -1  -8 -10 14.9924 11.1659   1
  -1  -8 -10 7.59795 9.36764   1
   1   8  10 6.22443 1.63557   3
  -2  -8 -10 -1.5483 6.87945   1
  -2  -8 -10 4.72608 8.33516   1
  -2  -8 -10 -0.2136 0.88007   2
   2   8  10 0.61969 1.17304   3
  -3  -8 -10 23.5986 5.80414   1
  -3  -8 -10 28.2628 6.47647   1
  -3  -8 -10 33.3748 2.61861   2
   3   8  10 28.3472 2.29970   3
  -4  -8 -10 -0.6277 0.96241   2
   4   8  10 0.83190 0.99046   3
   6   8  10 6.75866 7.26893   1
   7   8  10 157.110 15.2033   1
   8   8  10 -6.1334 8.06460   1
   9   8  10 35.7680 3.11567   2
   9   8  10 40.1232 11.7263   1
  10   8  10 17.2066 2.46385   2
  11   8  10 -3.7769 1.47351   2
  12   8  10 9.86982 2.29446   2
   3  -9 -10 7.11909 2.00563   2
  -3   9  10 10.6765 2.90868   3
   2  -9 -10 15.7066 2.23327   2
  -2   9  10 18.0004 3.22585   3
   1  -9 -10 26.7631 2.81681   2
   1  -9 -10 30.0167 21.3923   1
  -1   9  10 27.8646 3.51646   3
   0  -9 -10 34.6821 17.4433   1
   0  -9 -10 65.3883 15.2042   1
   0  -9 -10 55.5401 3.59080   2
   0   9  10 52.7055 3.88940   3
  -1  -9 -10 3.12873 12.0920   1
  -1  -9 -10 2.12701 1.38266   2
  -1  -9 -10 16.5000 16.8116   1
   1   9  10 2.45349 1.48122   3
  -2  -9 -10 32.1513 9.22363   1
  -2  -9 -10 19.9340 2.02061   2
  -2  -9 -10 0.10871 8.93532   1
  -3  -9 -10 71.1901 3.68038   2
  -4  -9 -10 6.26304 1.49868   2
   4   9  10 5.67351 1.47968   3
   8   9  10 8.66511 13.3121   1
   9   9  10 7.57040 8.96796   1
   9   9  10 3.01283 1.54113   2
  10   9  10 5.37033 1.80405   2
  11   9  10 1.90432 1.99053   2
   2 -10 -10 8.91299 1.94959   2
  -2  10  10 3.25634 2.20247   3
   1 -10 -10 -13.811 26.2056   1
   1 -10 -10 2.15393 1.42557   2
  -1  10  10 0.93464 1.70612   3
   0 -10 -10 25.7397 20.1210   1
  -1 -10 -10 173.704 6.65369   2
   1  10  10 167.617 7.21736   3
  -2 -10 -10 -6.7071 8.44838   1
  -2 -10 -10 1.42634 1.16602   2
  -2 -10 -10 6.35461 9.69104   1
   2  10  10 2.92938 1.87259   3
   3  10  10 -1.7886 1.13409   3
  -4 -10 -10 8.39371 2.09259   2
   4  10  10 8.17963 1.78541   3
   9  10  10 6.52868 1.87764   2
  10  10  10 -1.3158 1.53258   2
  11  10  10 -2.1420 2.70430   2
   0 -11 -10 -16.830 26.6590   1
   0  11  10 10.3281 2.63776   3
  -1 -11 -10 -0.6582 1.24630   2
  -1 -11 -10 19.5303 17.8288   1
   1  11  10 3.64510 2.17168   3
  -2 -11 -10 6.11143 1.73133   2
   2  11  10 -0.5905 1.58139   3
  -3 -11 -10 1.68574 1.22628   2
   3  11  10 -0.5831 1.39853   3
   4  11  10 1.19408 1.41297   3
  10  11  10 0.21059 1.74458   2
  -2 -12 -10 -0.1005 1.35139   2
   2  12  10 -1.2032 1.65702   3
  -3 -12 -10 12.6725 2.17537   2
   3  12  10 15.5126 2.64449   3
   4  12  10 13.5511 2.36270   3
   5  12  10 1.52808 1.71587   3
   9  12  10 9.04934 2.01363   2
   5  13  10 1.62205 1.72274   3
  -3 -12  11 30.1113 23.5514   1
   5  11 -11 60.4365 30.2389   1
   4  11 -11 -18.026 26.5451   1
  -4 -11  11 9.71231 16.4582   1
   3  11 -11 -35.570 27.4574   1
  -3 -11  11 12.8212 25.0578   1
   2  11 -11 -32.700 28.5882   1
  -2 -11  11 1.05207 20.9737   1
   1  11 -11 22.4100 33.7602   1
  -1 -11  11 22.0568 25.9825   1
   7  10 -11 44.2370 28.2388   1
   6  10 -11 107.375 26.0384   1
   4  10 -11 -16.957 19.5334   1
  -4 -10  11 5.48320 14.0606   1
   3  10 -11 -10.282 18.3079   1
  -3 -10  11 0.81743 15.4320   1
   2  10 -11 -25.137 20.9555   1
  -2 -10  11 -0.0901 17.2925   1
   1  10 -11 95.1873 25.1286   1
  -1 -10  11 97.5374 23.3723   1
   0  10 -11 83.1420 28.4429   1
  -1  10 -11 49.5502 34.4830   1
   1 -10  11 79.3985 29.4551   1
   9   9 -11 0.04071 1.20470   2
   8   9 -11 -4.5089 35.9167   1
   6   9 -11 -6.0861 19.7087   1
   5   9 -11 22.8329 18.1432   1
   4   9 -11 48.8054 19.2645   1
  -4  -9  11 41.8147 13.9713   1
   3   9 -11 6.04786 16.4852   1
  -3  -9  11 21.6614 14.5555   1
   2   9 -11 25.6832 18.8355   1
  -2  -9  11 59.7649 25.5819   1
   1   9 -11 1.97249 17.1962   1
  -1  -9  11 14.9487 19.5593   1
   0  -9  11 65.0683 21.1813   1
  -1   9 -11 41.8425 26.0257   1
  -2   9 -11 62.4678 31.7064   1
   2  -9  11 35.0998 25.2129   1
  -3   9 -11 -8.5605 32.4653   1
   3  -9  11 12.5777 33.3364   1
   9   8 -11 14.1316 2.03549   2
   8   8 -11 26.7849 24.6915   1
   7   8 -11 24.6724 21.0012   1
   6   8 -11 -8.2584 16.6949   1
   5   8 -11 7.30405 16.6252   1
   4   8 -11 -11.580 12.3802   1
  -4  -8  11 -1.8733 11.2811   1
   3   8 -11 124.569 20.5779   1
  -3  -8  11 142.005 21.3171   1
   2   8 -11 14.5180 15.1859   1
  -2  -8  11 0.69599 11.7136   1
   1   8 -11 14.6521 16.2138   1
  -1  -8  11 10.9092 14.0464   1
  -1   8 -11 233.699 30.7940   1
   1  -8  11 230.334 27.3924   1
  -2   8 -11 92.9799 26.1111   1
   2  -8  11 90.9006 23.2076   1
  -3   8 -11 16.4618 23.6759   1
   3  -8  11 9.77785 29.1841   1
   4  -8  11 9.86819 31.6339   1
  -5   8 -11 -7.1526 40.0083   1
   9   7 -11 9.19008 1.65678   2
  -9  -7  11 5.66412 2.54722   3
   8   7 -11 16.5509 1.82223   2
   8   7 -11 27.9863 23.5079   1
  -8  -7  11 14.1010 2.92515   3
   7   7 -11 22.1976 17.3664   1
   7   7 -11 12.6679 1.55335   2
   6   7 -11 12.0969 16.4232   1
   6   7 -11 9.32257 1.20173   2
   5   7 -11 -2.7709 12.0532   1
   5   7 -11 1.85321 0.71350   2
   4   7 -11 6.65139 12.8080   1
  -4  -7  11 4.34713 12.4247   1
   3   7 -11 68.2242 15.7181   1
  -3  -7  11 41.1219 12.4470   1
   2   7 -11 39.3546 13.0332   1
  -2  -7  11 61.0772 13.5753   1
   1   7 -11 13.6744 13.8687   1
   0   7 -11 2.31741 12.1988   1
   0  -7  11 -14.160 11.1964   1
  -1   7 -11 63.1880 16.9711   1
   1  -7  11 42.6294 16.3540   1
  -2   7 -11 3.38717 16.3169   1
   2  -7  11 0.29834 15.5066   1
  -3   7 -11 -4.6821 21.0078   1
   3  -7  11 20.5553 17.7261   1
  -4   7 -11 90.8019 26.5004   1
   4  -7  11 27.5622 24.8386   1
  -5   7 -11 2.03465 28.9192   1
  -5   7 -11 -0.0979 1.35651   3
   5  -7  11 1.34199 1.05723   2
   5  -7  11 -4.7641 30.1747   1
   5  -7  11 1.05509 0.89828   2
  -6   7 -11 -19.276 45.4234   1
  -6   7 -11 5.81160 1.76884   3
   6  -7  11 5.83614 1.17399   2
   9   6 -11 2.75630 1.42939   2
   9   6 -11 -16.954 30.2686   1
  -9  -6  11 3.50858 2.15640   3
   8   6 -11 55.3014 23.7064   1
   7   6 -11 -2.7914 18.2377   1
   7   6 -11 11.3686 1.65021   2
   7   6 -11 28.6756 21.3060   1
  -7  -6  11 14.3639 1.63392   2
  -7  -6  11 14.9042 2.69846   3
   6   6 -11 -0.2020 0.93142   2
   6   6 -11 3.31363 13.4066   1
  -6  -6  11 1.74270 1.62293   3
  -6  -6  11 -1.7697 0.72802   2
   5   6 -11 46.4848 14.1035   1
   5   6 -11 56.8165 2.58958   2
  -5  -6  11 56.8342 3.67796   3
  -5  -6  11 54.8588 2.43706   2
   4   6 -11 48.8948 2.01378   2
   4   6 -11 29.0872 13.2263   1
  -4  -6  11 52.9978 13.0572   1
  -4  -6  11 46.5089 1.93518   2
   3   6 -11 -1.1537 10.7423   1
  -3  -6  11 23.7693 10.2593   1
   2   6 -11 7.41385 9.75063   1
   1   6 -11 20.8191 11.1849   1
  -1  -6  11 45.9143 12.9872   1
   0   6 -11 6.36821 12.8014   1
   0  -6  11 -0.0101 8.93554   1
  -1   6 -11 42.5622 14.6106   1
   1  -6  11 66.9581 15.1121   1
  -2   6 -11 0.50936 12.5241   1
   2  -6  11 -7.9302 11.4933   1
  -3   6 -11 -18.430 15.8781   1
   3  -6  11 16.0368 14.6526   1
  -4   6 -11 49.3580 20.0931   1
   4  -6  11 54.1274 2.19103   2
   4  -6  11 59.4521 21.7017   1
   4  -6  11 45.4469 2.32352   2
  -5   6 -11 -11.536 25.3497   1
   5  -6  11 -3.3243 25.7760   1
  -6   6 -11 53.5832 34.0408   1
  -7   6 -11 103.422 43.0992   1
  -7   6 -11 56.4329 3.47042   3
   7  -6  11 141.572 52.5975   1
   7  -6  11 47.5050 2.81362   2
  10   5 -11 -0.6676 1.67587   2
   9   5 -11 3.71354 1.66544   2
  -9  -5  11 0.58627 1.83838   3
   8   5 -11 5.02310 1.53191   2
   8   5 -11 -13.372 23.3855   1
   8   5 -11 -14.166 24.4729   1
  -8  -5  11 2.46896 1.98113   3
   7   5 -11 116.819 4.74144   2
   7   5 -11 83.3436 19.9317   1
   7   5 -11 112.126 24.8213   1
  -7  -5  11 119.144 5.84120   3
   6   5 -11 149.425 22.0928   1
   6   5 -11 188.549 6.25025   2
  -6  -5  11 190.313 7.44883   3
  -6  -5  11 183.358 6.15488   2
   5   5 -11 27.2770 2.07968   2
   5   5 -11 7.07305 12.9130   1
  -5  -5  11 27.0548 1.85368   2
  -5  -5  11 32.9529 2.87064   3
   4   5 -11 90.0302 16.3115   1
   4   5 -11 102.285 3.59263   2
  -4  -5  11 109.191 6.86015   3
  -4  -5  11 96.0225 4.02162   2
   3   5 -11 4.65762 0.76638   2
   3   5 -11 1.63886 10.0831   1
  -3  -5  11 8.57151 10.5485   1
  -3  -5  11 5.74969 0.76934   2
   2   5 -11 -6.0703 8.08063   1
  -2  -5  11 0.42066 0.42448   2
  -2  -5  11 2.29820 7.87612   1
   1   5 -11 49.0754 15.0689   1
  -1  -5  11 40.9415 10.7822   1
   0   5 -11 547.064 36.8451   1
   0  -5  11 494.366 29.6966   1
  -1   5 -11 51.7307 14.2344   1
   1  -5  11 43.8534 13.0912   1
  -2   5 -11 -3.5243 12.0991   1
   2  -5  11 1.16270 11.0499   1
  -3   5 -11 15.0724 13.3102   1
   3  -5  11 20.6695 1.32130   2
   3  -5  11 25.7449 13.5459   1
   3  -5  11 18.6739 1.22526   2
  -4   5 -11 20.6716 17.2696   1
   4  -5  11 18.4232 1.44014   2
   4  -5  11 19.6801 17.1717   1
  -5   5 -11 39.3746 2.53282   3
  -5   5 -11 55.9748 32.2891   1
   5  -5  11 36.8995 2.19368   2
   5  -5  11 3.69826 21.6590   1
   5  -5  11 42.4485 2.19961   2
  -6   5 -11 32.2636 2.43823   3
  -6   5 -11 34.4018 23.6331   1
   6  -5  11 34.0415 2.53532   2
   6  -5  11 29.0885 2.18564   2
   6  -5  11 7.28215 41.4689   1
  -7   5 -11 4.07429 36.8989   1
  -7   5 -11 0.95136 1.18964   3
   7  -5  11 -0.0237 1.02983   2
   7  -5  11 2.31528 31.7372   1
  -8   5 -11 2.08925 1.39833   3
   8  -5  11 -23.219 47.7007   1
   8  -5  11 2.14455 1.36929   2
   9   4 -11 -1.0708 1.54058   2
   9   4 -11 -23.200 28.7489   1
  -9  -4  11 -0.6964 1.81165   3
   8   4 -11 17.5023 24.3813   1
   8   4 -11 -16.343 25.3574   1
   7   4 -11 7.86171 20.6087   1
   7   4 -11 0.66742 1.31762   2
  -7  -4  11 0.84674 1.64911   3
   6   4 -11 21.2045 14.8265   1
   6   4 -11 27.5520 16.7474   1
   5   4 -11 80.1360 3.46525   2
  -5  -4  11 78.6046 4.24520   3
  -5  -4  11 81.1556 3.35131   2
  -4  -4  11 163.486 6.23280   3
  -4  -4  11 159.492 5.17279   2
  -4  -4  11 162.288 18.3220   1
   3   4 -11 125.774 4.10338   2
  -3  -4  11 135.897 15.9352   1
  -3  -4  11 122.321 4.03587   2
  -3  -4  11 124.410 5.01104   3
   2   4 -11 1.80529 0.65912   2
   2   4 -11 2.78614 9.18507   1
  -2  -4  11 -18.641 6.65188   1
  -2  -4  11 0.97303 0.59415   2
   1   4 -11 2.63551 0.63716   2
   1   4 -11 -3.1269 9.27420   1
  -1  -4  11 11.8695 8.78127   1
  -1  -4  11 3.07077 0.56840   2
   0   4 -11 9.30645 8.32091   1
   0  -4  11 17.7340 0.99558   2
   0  -4  11 24.7106 9.94617   1
  -1   4 -11 217.519 21.3685   1
   1  -4  11 161.739 19.1451   1
   1  -4  11 227.677 6.14738   2
   1  -4  11 231.435 6.16521   2
  -2   4 -11 246.428 22.6965   1
   2  -4  11 230.216 6.49253   2
   2  -4  11 234.286 6.48476   2
   2  -4  11 202.215 20.9834   1
  -3   4 -11 27.6056 11.9845   1
   3  -4  11 18.3916 1.35961   2
   3  -4  11 10.2542 11.1460   1
   3  -4  11 18.0063 1.32813   2
  -4   4 -11 26.7480 14.3249   1
   4  -4  11 47.6912 2.36132   2
   4  -4  11 39.4845 14.3658   1
   4  -4  11 47.0862 2.19783   2
  -5   4 -11 105.447 20.7757   1
  -5   4 -11 112.887 4.21763   3
   5  -4  11 121.852 23.2071   1
   5  -4  11 108.016 4.03489   2
   5  -4  11 110.481 4.02067   2
  -6   4 -11 33.7792 2.30512   3
  -6   4 -11 9.63953 19.4823   1
   6  -4  11 43.9481 2.52099   2
   6  -4  11 73.8545 37.1841   1
  -7   4 -11 0.30549 1.02947   3
  -7   4 -11 -26.470 27.9266   1
   7  -4  11 1.39943 1.07298   2
   7  -4  11 21.0981 28.4003   1
  -8   4 -11 24.4796 43.6546   1
   8  -4  11 -18.052 37.6764   1
   8  -4  11 4.03267 1.37172   2
   9   3 -11 1.28192 1.51793   2
   9   3 -11 23.1701 30.2249   1
  -9  -3  11 5.40277 2.24987   3
   8   3 -11 -1.5189 32.5875   1
   8   3 -11 43.2339 23.6029   1
   8   3 -11 16.3047 2.01913   2
  -8  -3  11 16.4225 2.74522   3
   7   3 -11 28.4874 21.5875   1
   7   3 -11 34.0942 2.81989   2
   7   3 -11 11.8559 20.1585   1
  -7  -3  11 38.5123 3.45848   3
   6   3 -11 -10.417 12.9910   1
   6   3 -11 -0.2917 1.15766   2
   6   3 -11 14.1714 17.2554   1
  -6  -3  11 -1.4368 0.90177   2
  -6  -3  11 2.11406 1.33947   3
   5   3 -11 146.851 5.17932   2
   5   3 -11 111.037 19.7392   1
  -5  -3  11 141.153 5.07206   2
  -5  -3  11 147.801 5.99273   3
   4   3 -11 36.4259 2.34785   2
   4   3 -11 30.3020 13.2842   1
  -4  -3  11 39.4690 11.3208   1
  -4  -3  11 34.8249 2.74967   3
  -4  -3  11 37.6428 2.11889   2
   3   3 -11 138.316 4.65265   2
  -3  -3  11 142.216 4.59245   2
  -3  -3  11 129.366 16.7098   1
  -3  -3  11 139.068 5.36612   3
   2   3 -11 23.5486 10.4165   1
   2   3 -11 31.4077 1.80230   2
  -2  -3  11 31.9396 1.69974   2
  -2  -3  11 42.3371 11.0391   1
  -2  -3  11 27.7490 2.18602   3
   1   3 -11 5.53442 0.80807   2
   1   3 -11 0.90499 8.57819   1
  -1  -3  11 -5.2802 6.40477   1
  -1  -3  11 4.15237 0.72856   2
  -1  -3  11 3.05446 1.05139   3
   0   3 -11 197.589 18.5340   1
   0   3 -11 206.860 5.90456   2
   0  -3  11 221.864 18.7944   1
   0  -3  11 203.121 5.86578   2
  -1   3 -11 572.655 31.4341   1
   1  -3  11 609.236 16.0152   2
   1  -3  11 621.884 31.9089   1
  -2   3 -11 39.9441 11.3345   1
   2  -3  11 39.3874 11.7116   1
   2  -3  11 40.2193 1.78527   2
   2  -3  11 36.9241 1.80287   2
  -3   3 -11 41.7748 12.0187   1
   3  -3  11 29.7198 1.73767   2
   3  -3  11 30.4782 1.68029   2
   3  -3  11 42.3441 11.8383   1
  -4   3 -11 -4.3160 11.6860   1
   4  -3  11 4.14704 0.93308   2
   4  -3  11 12.4242 12.7199   1
   4  -3  11 3.09019 0.85428   2
  -5   3 -11 14.5504 1.46734   3
  -5   3 -11 -5.4619 12.3425   1
   5  -3  11 16.0393 1.58216   2
   5  -3  11 45.2620 16.5882   1
   5  -3  11 11.7467 1.33879   2
  -6   3 -11 4.23284 1.02978   3
  -6   3 -11 -1.8546 16.7940   1
   6  -3  11 4.64427 1.26448   2
   6  -3  11 14.8071 28.2343   1
   6  -3  11 4.97670 1.23243   2
  -7   3 -11 36.4982 2.22809   3
  -7   3 -11 73.7390 25.2861   1
   7  -3  11 55.2598 24.6050   1
   7  -3  11 36.3051 2.62439   2
  -8   3 -11 1.20464 1.08242   3
  -8   3 -11 11.1537 27.2339   1
   8  -3  11 -8.0111 30.5208   1
   9  -3  11 -106.53 37.0661   1
   9   2 -11 3.10172 1.81732   2
   9   2 -11 12.4532 36.0299   1
  -9  -2  11 2.19996 2.08178   3
   8   2 -11 3.90895 1.45156   2
   8   2 -11 11.9700 24.2476   1
  -8  -2  11 3.98100 1.84917   3
   7   2 -11 -14.209 18.4528   1
   7   2 -11 5.84496 17.8741   1
   7   2 -11 12.7129 2.06274   2
  -7  -2  11 15.4200 2.76165   3
   6   2 -11 20.6823 17.1887   1
   6   2 -11 2.85858 1.32014   2
   6   2 -11 -9.4363 13.7947   1
  -6  -2  11 1.81803 1.47153   3
   5   2 -11 -10.422 19.5439   1
   5   2 -11 3.48818 1.27262   2
   5   2 -11 9.21141 11.9105   1
  -5  -2  11 1.33160 1.05114   2
  -5  -2  11 0.90859 1.44515   3
   4   2 -11 264.674 24.2102   1
   4   2 -11 281.153 8.52104   2
  -4  -2  11 281.706 8.45457   2
  -4  -2  11 273.391 9.12252   3
   3   2 -11 398.750 26.4961   1
   3   2 -11 382.586 10.9584   2
  -3  -2  11 377.880 10.8883   2
  -3  -2  11 383.152 11.5973   3
   2   2 -11 4.43108 7.74733   1
  -2  -2  11 1.99008 1.08004   3
  -2  -2  11 1.62616 7.74105   1
  -2  -2  11 2.01678 0.80047   2
   1   2 -11 254.444 20.2707   1
   1   2 -11 253.439 7.20245   2
  -1  -2  11 242.666 19.3877   1
  -1  -2  11 244.545 7.12581   2
  -1  -2  11 240.226 7.60100   3
   0   2 -11 12.9548 1.24122   2
   0   2 -11 8.72030 7.50582   1
   0  -2  11 10.1431 1.00247   2
   0  -2  11 9.80990 7.40498   1
   0  -2  11 10.3692 1.27972   3
  -1   2 -11 484.059 27.7173   1
   1  -2  11 536.190 28.4533   1
   1  -2  11 515.244 13.8207   2
  -2   2 -11 612.416 31.6677   1
   2  -2  11 570.774 30.8433   1
   2  -2  11 592.552 15.8941   2
  -3   2 -11 223.504 20.5454   1
   3  -2  11 230.139 6.95681   2
   3  -2  11 272.432 22.8217   1
  -4   2 -11 42.5947 11.9096   1
   4  -2  11 55.9747 14.1610   1
   4  -2  11 60.6616 2.62135   2
  -5   2 -11 58.2850 15.5706   1
  -5   2 -11 59.6786 2.42380   3
   5  -2  11 69.1126 2.91409   2
   5  -2  11 61.3668 16.3181   1
   5  -2  11 65.9394 3.00686   2
  -6   2 -11 -31.370 13.9048   1
   6  -2  11 3.92062 1.12048   2
   6  -2  11 -28.525 26.6404   1
   6  -2  11 2.52725 1.04202   2
  -7   2 -11 237.754 29.2720   1
  -7   2 -11 233.685 7.02168   3
   7  -2  11 161.148 26.5058   1
   7  -2  11 251.763 7.83386   2
  -8   2 -11 3.06179 38.0817   1
   8  -2  11 0.84363 1.17931   2
   8  -2  11 -8.7927 22.2191   1
   9  -2  11 2.53451 1.38402   2
   9  -2  11 -34.226 30.0936   1
  10  -2  11 0.94810 1.55019   2
   9   1 -11 36.2310 52.2574   1
   8   1 -11 8.58799 34.1948   1
   8   1 -11 18.1929 2.19472   2
   8   1 -11 51.1237 28.6697   1
  -8  -1  11 14.1620 2.91231   3
   7   1 -11 13.6418 18.6844   1
   7   1 -11 6.91045 1.78843   2
   7   1 -11 2.62889 21.6657   1
  -7  -1  11 3.71938 1.89640   3
   6   1 -11 -5.2136 14.2588   1
   6   1 -11 1.57924 1.28822   2
   6   1 -11 -8.9144 16.3662   1
  -6  -1  11 2.08249 1.50892   3
   5   1 -11 253.276 26.5536   1
   5   1 -11 200.432 24.1520   1
   5   1 -11 232.593 7.49505   2
  -5  -1  11 210.905 7.35522   2
  -5  -1  11 227.326 8.09919   3
   4   1 -11 98.0638 16.3017   1
   4   1 -11 91.1454 17.2468   1
   4   1 -11 109.991 4.32320   2
  -4  -1  11 102.214 4.06434   2
  -4  -1  11 106.219 4.70191   3
   3   1 -11 10.0313 1.40425   2
   3   1 -11 3.80057 9.15278   1
  -3  -1  11 7.10263 1.49766   3
  -3  -1  11 11.5618 1.32123   2
  -3  -1  11 10.8818 8.89945   1
   2   1 -11 141.536 4.86343   2
   2   1 -11 147.792 18.0508   1
  -2  -1  11 140.203 4.74230   2
  -2  -1  11 128.597 15.9423   1
  -2  -1  11 147.089 5.18012   3
   1   1 -11 0.17451 7.68086   1
  -1  -1  11 3.84070 1.01737   3
  -1  -1  11 -4.1837 6.89867   1
  -1  -1  11 2.82051 0.80610   2
   0   1 -11 42.6817 9.64658   1
   0   1 -11 59.0309 2.43604   2
   0  -1  11 59.6944 10.8743   1
   0  -1  11 56.8701 2.59780   2
   0  -1  11 54.3461 2.44890   3
  -1   1 -11 1.54773 5.96416   1
  -1   1 -11 6.40576 0.94927   2
   1  -1  11 6.34613 6.50757   1
   1  -1  11 5.40757 0.88831   2
  -2   1 -11 194.082 16.9184   1
   2  -1  11 149.260 15.6761   1
   2  -1  11 160.066 5.35806   2
  -3   1 -11 289.100 21.2783   1
   3  -1  11 297.616 8.49436   2
   3  -1  11 283.315 21.7504   1
  -4   1 -11 237.713 20.8058   1
   4  -1  11 306.627 23.3051   1
   4  -1  11 291.769 8.65601   2
   4  -1  11 292.907 8.47107   2
  -5   1 -11 33.6623 11.9347   1
   5  -1  11 54.2909 2.73145   2
   5  -1  11 50.8349 2.53424   2
   5  -1  11 38.4750 12.9203   1
  -6   1 -11 25.8123 13.7822   1
   6  -1  11 39.3516 2.55034   2
   6  -1  11 37.7688 2.41496   2
  -7   1 -11 13.0310 13.8264   1
   7  -1  11 18.9020 2.02873   2
   7  -1  11 34.1444 15.5599   1
  -8   1 -11 -11.890 19.3968   1
   8  -1  11 2.47697 1.30533   2
   8  -1  11 -39.331 19.9932   1
  -9   1 -11 20.2348 30.4524   1
   9  -1  11 31.8400 39.9037   1
  10  -1  11 -2.3668 1.34417   2
   9   0 -11 -0.7676 1.68600   2
  -9   0  11 1.77659 2.14114   3
   8   0 -11 2.24870 29.2531   1
   8   0 -11 -17.216 33.4363   1
   8   0 -11 3.43035 1.76516   2
  -8   0  11 5.55158 2.29715   3
   7   0 -11 5.48670 23.2704   1
   7   0 -11 3.74987 1.46542   2
   7   0 -11 -6.6571 19.8953   1
  -7   0  11 4.41603 1.81904   3
   6   0 -11 7.94876 17.2009   1
   6   0 -11 -4.0482 18.1734   1
   5   0 -11 5.82051 1.31629   2
   5   0 -11 17.7682 14.3894   1
   5   0 -11 10.6860 12.6792   1
  -5   0  11 3.84325 1.59841   3
   4   0 -11 37.9474 2.71726   2
   4   0 -11 48.0128 14.5450   1
   4   0 -11 41.3129 13.6196   1
  -4   0  11 38.7854 2.83156   3
  -4   0  11 36.9339 2.45705   2
   3   0 -11 240.000 7.49657   2
   3   0 -11 211.308 21.2053   1
  -3   0  11 236.335 7.40268   2
  -3   0  11 233.715 7.83117   3
   2   0 -11 409.878 26.6036   1
   2   0 -11 461.804 12.9338   2
  -2   0  11 465.745 12.8911   2
  -2   0  11 452.179 13.2307   3
  -2   0  11 473.604 27.7450   1
   1   0 -11 1374.50 37.5100   2
   1   0 -11 1416.73 53.6523   1
  -1   0  11 1452.12 54.4354   1
  -1   0  11 1412.70 37.2466   3
  -1   0  11 1397.85 36.9890   2
   0   0 -11 426.543 24.8627   1
   0   0 -11 388.996 11.0078   2
   0   0  11 391.760 10.9790   3
   0   0  11 393.307 10.9567   2
   0   0  11 339.743 22.9058   1
  -1   0 -11 159.181 15.4666   1
   1   0  11 188.311 16.1455   1
   1   0  11 157.827 5.07062   2
   1   0  11 161.004 4.94428   3
  -2   0 -11 87.7696 12.5094   1
   2   0  11 110.501 13.6350   1
   2   0  11 110.860 3.74003   2
  -3   0 -11 238.294 18.6031   1
   3   0  11 231.457 19.1659   1
   3   0  11 262.114 7.51430   2
  -4   0 -11 1105.98 45.6780   1
   4   0  11 1087.68 45.9786   1
   4   0  11 1092.31 29.0979   2
  -5   0 -11 45.0554 12.0949   1
   5   0  11 49.5691 2.70319   2
   5   0  11 51.1751 2.58431   2
   5   0  11 49.6492 13.0378   1
  -6   0 -11 0.14872 9.71074   1
   6   0  11 5.79223 1.28096   2
   6   0  11 7.61690 1.37975   2
   6   0  11 15.4008 18.8744   1
  -7   0 -11 50.3187 15.2065   1
   7   0  11 51.3448 3.45742   2
   7   0  11 61.0885 3.23743   2
   7   0  11 38.6869 15.6388   1
  -8   0 -11 -22.330 16.6141   1
   8   0  11 20.7903 17.0228   1
  -9   0 -11 18.4763 22.7820   1
   9   0  11 8.96569 1.75225   2
  10   0  11 7.89041 1.86502   2
   8  -1 -11 30.8196 2.98732   2
   8  -1 -11 60.4003 46.0906   1
   8  -1 -11 46.4444 36.4156   1
  -8   1  11 44.8493 4.17746   3
   7  -1 -11 48.5118 24.9035   1
   7  -1 -11 -14.154 26.2718   1
   7  -1 -11 5.37632 1.63870   2
  -7   1  11 9.75126 2.50714   3
   6  -1 -11 -0.3951 1.18339   2
   6  -1 -11 -7.3357 20.3546   1
  -6   1  11 0.29946 1.48971   3
   5  -1 -11 52.0037 18.6335   1
   5  -1 -11 38.9312 15.8608   1
   5  -1 -11 55.6892 3.32562   2
  -5   1  11 43.6323 3.38335   3
   4  -1 -11 51.6445 3.10232   2
   4  -1 -11 53.3039 15.4881   1
   4  -1 -11 39.6857 13.6766   1
   3  -1 -11 10.4822 1.55284   2
   3  -1 -11 13.6049 10.2144   1
   3  -1 -11 0.56400 9.99715   1
  -3   1  11 10.0573 1.77062   3
  -3   1  11 17.1052 1.93250   2
   2  -1 -11 267.923 21.7139   1
   2  -1 -11 272.845 8.32956   2
  -2   1  11 275.536 8.57367   3
  -2   1  11 274.338 8.26274   2
  -2   1  11 226.752 20.9820   1
   1  -1 -11 30.5568 2.12588   2
   1  -1 -11 10.4095 7.55115   1
  -1   1  11 49.2096 10.6777   1
  -1   1  11 28.5726 1.93801   2
  -1   1  11 28.6240 1.95934   3
   0  -1 -11 1.29735 0.87712   2
   0  -1 -11 -3.2951 6.18178   1
   0   1  11 -0.1088 6.10356   1
   0   1  11 0.91822 0.75528   2
   0   1  11 1.77804 0.82742   3
  -1  -1 -11 195.557 16.2471   1
   1   1  11 189.281 17.1359   1
   1   1  11 182.080 5.48824   3
   1   1  11 179.644 5.72688   2
  -2  -1 -11 136.961 13.5986   1
   2   1  11 131.888 3.91752   3
   2   1  11 128.669 4.41173   2
   2   1  11 147.573 14.8624   1
  -3  -1 -11 17.8025 6.96897   1
   3   1  11 18.3798 1.56549   2
   3   1  11 21.7339 8.01613   1
  -4  -1 -11 78.8257 12.4939   1
   4   1  11 72.3798 12.0953   1
   4   1  11 86.7370 3.38450   2
  -5  -1 -11 496.676 28.5280   1
   5   1  11 521.840 29.7268   1
   5   1  11 506.071 14.3293   2
  -6  -1 -11 17.9402 10.1001   1
   6   1  11 11.1217 11.4435   1
  -7  -1 -11 8.97135 12.1143   1
   7   1  11 24.8232 2.39616   2
   7   1  11 36.6630 14.8325   1
   7   1  11 18.2269 2.14378   2
  -8  -1 -11 89.7347 19.7506   1
   8   1  11 103.243 4.59448   2
   8   1  11 90.9768 19.1456   1
  -9  -1 -11 12.2220 17.5539   1
   9   1  11 17.1874 33.1835   1
   9   1  11 11.4323 1.91443   2
  10   1  11 8.23668 1.84009   2
  11   1  11 32.6050 3.33840   2
   8  -2 -11 28.2724 43.5272   1
   8  -2 -11 28.4381 72.1893   1
   7  -2 -11 7.24684 2.08153   2
   7  -2 -11 -2.3295 29.3239   1
   7  -2 -11 40.2530 29.3759   1
  -7   2  11 10.0812 2.42337   3
   6  -2 -11 3.10977 23.0098   1
   6  -2 -11 -2.4105 34.3911   1
   5  -2 -11 31.7894 18.6062   1
   5  -2 -11 29.8164 2.91078   2
   5  -2 -11 30.8819 20.6265   1
  -5   2  11 29.4930 2.94480   3
   4  -2 -11 76.1389 3.81268   2
   4  -2 -11 49.9570 15.8452   1
   4  -2 -11 41.7597 16.3600   1
  -4   2  11 74.0206 4.00709   3
   3  -2 -11 5.05002 1.45153   2
   3  -2 -11 10.2786 10.8535   1
   3  -2 -11 -3.2131 10.3475   1
  -3   2  11 3.43846 1.37775   3
  -3   2  11 7.69329 1.31085   2
   2  -2 -11 47.7126 11.6293   1
   2  -2 -11 29.1840 11.3739   1
   2  -2 -11 39.3370 2.57956   2
  -2   2  11 34.1735 2.29810   2
  -2   2  11 38.5270 2.52860   3
   1  -2 -11 4.61701 7.25169   1
  -1   2  11 8.14609 8.02024   1
   0  -2 -11 89.0232 3.64159   2
   0  -2 -11 73.7701 11.2848   1
   0   2  11 95.8665 3.53581   3
   0   2  11 110.518 14.2558   1
   0   2  11 92.3389 3.60748   2
  -1  -2 -11 212.132 6.65648   2
  -1  -2 -11 203.155 17.2597   1
   1   2  11 201.224 6.66213   3
   1   2  11 226.676 17.6476   1
   1   2  11 223.216 6.64748   2
  -2  -2 -11 4.68727 1.06942   2
  -2  -2 -11 5.09145 6.13561   1
   2   2  11 6.05176 1.04198   2
   2   2  11 8.62680 6.70639   1
   2   2  11 6.74099 0.79986   3
  -3  -2 -11 1.99871 0.83352   2
  -3  -2 -11 -2.2250 5.16991   1
   3   2  11 1.25140 0.77273   2
   3   2  11 -7.1114 5.70653   1
  -4  -2 -11 43.3695 8.51925   1
   4   2  11 32.7291 2.12157   2
   4   2  11 37.6599 10.1186   1
  -5  -2 -11 114.287 14.5282   1
   5   2  11 123.754 15.8723   1
   5   2  11 128.976 4.64450   2
  -6  -2 -11 287.445 22.2470   1
   6   2  11 304.470 23.6661   1
   6   2  11 329.209 9.81379   2
  -7  -2 -11 80.7201 15.0584   1
   7   2  11 78.3895 15.6533   1
   7   2  11 69.7756 4.35327   2
   7   2  11 82.6821 3.88920   2
  -8  -2 -11 16.2134 14.0327   1
   8   2  11 18.7170 2.13216   2
   8   2  11 33.8328 15.9701   1
  -9  -2 -11 66.9842 23.0105   1
   9   2  11 76.3122 4.31730   2
   9   2  11 87.5842 32.6133   1
  10   2  11 27.1654 2.72565   2
  11   2  11 8.94822 1.97697   2
   7  -3 -11 17.9104 38.8767   1
   7  -3 -11 -1.5929 39.9279   1
   7  -3 -11 1.94755 1.75821   2
  -7   3  11 6.09113 2.52192   3
   6  -3 -11 55.0238 26.6002   1
   6  -3 -11 83.6677 4.61884   2
   6  -3 -11 34.9439 28.1598   1
   5  -3 -11 10.2541 19.9132   1
   5  -3 -11 6.10630 19.4391   1
   4  -3 -11 11.5138 14.9761   1
   4  -3 -11 -17.699 12.8517   1
   3  -3 -11 221.105 7.62070   2
   3  -3 -11 225.163 24.6472   1
  -3   3  11 231.902 10.4205   3
   2  -3 -11 87.8109 14.6519   1
   2  -3 -11 110.334 4.47375   2
   2  -3 -11 81.3194 18.9133   1
  -2   3  11 116.558 4.68881   3
  -2   3  11 104.053 4.29205   2
   1  -3 -11 31.9386 10.4882   1
   1  -3 -11 -3.2423 6.99100   1
   1  -3 -11 8.11880 1.41181   2
  -1   3  11 14.7153 1.93432   3
  -1   3  11 8.91959 1.33205   2
   0  -3 -11 135.346 4.95841   2
   0  -3 -11 157.504 16.3727   1
   0  -3 -11 157.902 17.3490   1
   0   3  11 131.475 16.3476   1
   0   3  11 133.588 4.82513   3
   0   3  11 141.679 4.92882   2
  -1  -3 -11 1.59418 6.47609   1
  -1  -3 -11 1.03567 0.94263   2
   1   3  11 0.56309 0.80706   2
   1   3  11 3.71454 7.76437   1
   1   3  11 2.12983 0.83972   3
  -2  -3 -11 293.246 18.8355   1
  -2  -3 -11 287.319 8.63445   2
   2   3  11 293.626 8.59285   2
   2   3  11 273.969 8.02523   3
   2   3  11 280.799 19.3325   1
  -3  -3 -11 205.952 15.7119   1
  -3  -3 -11 219.614 6.87246   2
   3   3  11 215.175 6.78719   2
   3   3  11 208.657 16.5918   1
  -4  -3 -11 53.6311 9.27402   1
   4   3  11 47.8300 10.2366   1
   4   3  11 53.1327 2.67545   2
  -5  -3 -11 6.25812 7.89328   1
   5   3  11 13.9330 10.1773   1
  -6  -3 -11 154.987 16.2914   1
   6   3  11 152.370 5.55716   2
   6   3  11 149.414 18.2656   1
  -7  -3 -11 3.21269 9.02222   1
   7   3  11 7.43795 11.6736   1
   7   3  11 6.08723 1.55124   2
  -8  -3 -11 2.07867 11.3874   1
   8   3  11 10.7439 1.79586   2
   8   3  11 -16.878 12.3237   1
  -9  -3 -11 15.5506 25.0537   1
   9   3  11 17.5326 28.5320   1
  10   3  11 74.1805 4.42075   2
  11   3  11 10.9135 2.27931   2
   7  -4 -11 1.69058 1.79131   2
  -7   4  11 0.65794 1.93224   3
   6  -4 -11 19.5140 31.5615   1
   6  -4 -11 11.3394 2.19263   2
   6  -4 -11 14.3101 32.8943   1
  -6   4  11 12.0215 2.34880   3
   5  -4 -11 21.7463 2.53849   2
   5  -4 -11 23.8878 26.4782   1
   5  -4 -11 -10.237 21.4365   1
  -5   4  11 24.1659 2.79275   3
   4  -4 -11 38.8005 18.1515   1
   4  -4 -11 29.9190 2.83497   2
   4  -4 -11 23.2170 18.3733   1
  -4   4  11 29.3861 3.05887   3
   3  -4 -11 4.91264 14.9141   1
   3  -4 -11 8.64878 1.70772   2
   3  -4 -11 19.7175 12.7190   1
  -3   4  11 8.28037 1.81258   3
   2  -4 -11 20.8887 12.0413   1
   2  -4 -11 44.4694 2.93672   2
   2  -4 -11 54.1933 13.5218   1
  -2   4  11 39.0984 2.83915   3
   1  -4 -11 47.4364 2.87689   2
   1  -4 -11 26.9736 11.5523   1
  -1   4  11 46.3162 2.83723   3
  -1   4  11 46.0988 2.67754   2
   0  -4 -11 38.7784 10.4619   1
   0  -4 -11 59.2604 3.40772   2
   0   4  11 49.9359 2.72211   3
   0   4  11 52.6504 2.81132   2
  -1  -4 -11 53.6313 10.6191   1
  -1  -4 -11 48.3452 2.71401   2
  -1  -4 -11 34.6012 8.41839   1
   1   4  11 46.7476 2.40450   3
   1   4  11 47.2086 2.57231   2
   1   4  11 47.9771 10.9487   1
  -2  -4 -11 34.0205 2.28838   2
  -2  -4 -11 18.7750 6.89784   1
   2   4  11 31.8068 2.14006   2
   2   4  11 48.3843 10.1366   1
   2   4  11 30.2983 1.76710   3
  -3  -4 -11 7.01387 1.24215   2
  -3  -4 -11 6.37011 5.87695   1
   3   4  11 7.46705 1.22444   2
   3   4  11 11.3025 6.87601   1
   3   4  11 5.62023 0.83233   3
  -4  -4 -11 159.626 14.0081   1
   4   4  11 148.582 5.24398   2
   4   4  11 149.810 15.4858   1
  -5  -4 -11 157.582 20.2107   1
   5   4  11 164.162 16.1751   1
   5   4  11 153.774 5.53054   2
  -6  -4 -11 126.867 13.9657   1
   6   4  11 109.341 4.48713   2
   6   4  11 136.334 16.4168   1
  -7  -4 -11 11.4161 8.85045   1
   7   4  11 19.8842 10.7496   1
   7   4  11 29.6561 2.64975   2
  -8  -4 -11 35.1749 11.7388   1
   8   4  11 35.2200 13.2916   1
   8   4  11 51.7385 3.34171   2
  -9  -4 -11 12.0019 22.4413   1
  10   4  11 -1.0118 1.29433   2
  11   4  11 15.0877 2.45855   2
  12   4  11 6.48854 2.23932   2
   6  -5 -11 -1.8623 1.94197   2
   6  -5 -11 -58.452 42.2724   1
  -6   5  11 -1.5018 1.63175   3
   5  -5 -11 1.80374 1.45301   2
   5  -5 -11 -13.963 27.9172   1
   5  -5 -11 -16.941 27.2332   1
  -5   5  11 1.27149 2.01477   3
   4  -5 -11 59.2679 21.7004   1
   4  -5 -11 29.4951 21.7465   1
   4  -5 -11 52.9696 3.72711   2
  -4   5  11 63.2544 4.22366   3
   3  -5 -11 41.8086 16.4533   1
   3  -5 -11 -4.1918 15.3805   1
   2  -5 -11 -17.470 11.8579   1
   2  -5 -11 0.31214 1.22056   2
   2  -5 -11 8.65143 12.1100   1
  -2   5  11 0.87097 1.33209   3
   1  -5 -11 291.971 23.2892   1
   1  -5 -11 253.800 26.0346   1
   1  -5 -11 299.487 9.29910   2
  -1   5  11 287.871 9.40886   3
   0  -5 -11 363.264 24.7208   1
   0  -5 -11 355.228 10.7758   2
   0   5  11 338.514 10.6788   2
   0   5  11 368.326 10.8973   3
  -1  -5 -11 0.44032 8.12720   1
  -1  -5 -11 0.88069 0.97879   2
  -1  -5 -11 7.56818 7.26841   1
   1   5  11 0.26607 1.30164   2
   1   5  11 1.23003 0.99994   3
  -2  -5 -11 30.5970 2.37061   2
  -2  -5 -11 22.9050 8.97101   1
   2   5  11 29.7372 2.19546   2
   2   5  11 30.3045 1.94857   3
   2   5  11 32.9422 11.6740   1
  -3  -5 -11 3.61199 1.19653   2
   3   5  11 -3.2027 8.10956   1
   3   5  11 7.59342 1.06558   3
   3   5  11 6.15124 1.21638   2
  -4  -5 -11 33.4001 12.2843   1
  -4  -5 -11 68.7288 3.34272   2
   4   5  11 57.2971 3.46532   2
   4   5  11 69.7447 10.7898   1
   4   5  11 64.2433 2.31928   3
  -5  -5 -11 3.40673 5.83943   1
   5   5  11 8.93602 7.58401   1
   5   5  11 7.22319 1.32440   2
  -6  -5 -11 19.6923 6.86765   1
   6   5  11 23.4286 2.09957   2
   6   5  11 26.3626 9.35945   1
  -7  -5 -11 -5.1583 6.54074   1
   7   5  11 -1.9482 9.15444   1
  -8  -5 -11 16.8082 8.74155   1
   8   5  11 6.72630 1.65538   2
   8   5  11 7.53901 11.4807   1
  -9  -5 -11 1.87327 10.2878   1
   9   5  11 -0.4278 1.31223   2
   9   5  11 14.8116 16.4507   1
 -10  -5 -11 12.7476 13.3274   1
  10   5  11 10.5869 2.04959   2
  11   5  11 2.36583 1.86523   2
  12   5  11 1.07538 1.83030   2
   5  -6 -11 -4.1121 38.2003   1
   5  -6 -11 0.81273 1.37707   2
  -5   6  11 5.91684 2.46620   3
   4  -6 -11 35.1774 24.0113   1
   4  -6 -11 11.0953 25.8622   1
   4  -6 -11 5.08303 1.67523   2
  -4   6  11 4.16895 2.16750   3
   3  -6 -11 79.7858 4.29177   2
   3  -6 -11 82.4948 22.7598   1
  -3   6  11 81.7301 4.73555   3
   2  -6 -11 9.23867 14.0323   1
   2  -6 -11 17.4268 14.5243   1
   2  -6 -11 6.72724 1.82365   2
  -2   6  11 2.79784 1.68811   3
   1  -6 -11 15.3837 1.86723   2
   1  -6 -11 -4.0933 12.3484   1
   1  -6 -11 18.4182 11.6503   1
  -1   6  11 17.3779 2.13746   3
   0  -6 -11 38.9065 11.7310   1
   0  -6 -11 18.6431 1.91392   2
   0  -6 -11 13.1320 11.0750   1
   0   6  11 16.8119 1.95975   3
  -1  -6 -11 331.412 34.2336   1
  -1  -6 -11 334.841 9.88831   2
  -1  -6 -11 307.985 21.7893   1
   1   6  11 278.935 9.87794   2
   1   6  11 331.134 9.84098   3
  -2  -6 -11 194.203 17.4983   1
  -2  -6 -11 180.335 15.3759   1
  -2  -6 -11 179.302 6.35698   2
   2   6  11 187.368 6.15655   3
   2   6  11 183.666 6.32823   2
  -3  -6 -11 36.5036 7.85661   1
  -3  -6 -11 30.5620 2.43130   2
  -3  -6 -11 28.8231 8.14873   1
   3   6  11 30.2245 1.93535   3
   3   6  11 36.7877 9.88505   1
   3   6  11 29.3434 2.33588   2
  -4  -6 -11 58.6260 8.29328   1
  -4  -6 -11 46.7440 8.26882   1
  -4  -6 -11 57.0603 3.13672   2
   4   6  11 60.5329 11.1412   1
   4   6  11 52.8056 2.95938   2
   4   6  11 56.1812 2.41534   3
  -5  -6 -11 56.5842 7.14354   1
  -5  -6 -11 69.4053 7.59583   1
   5   6  11 49.2608 2.04786   3
   5   6  11 46.1144 9.99546   1
   5   6  11 48.0257 2.85795   2
  -6  -6 -11 34.5131 5.22996   1
  -6  -6 -11 28.0156 4.75546   1
   6   6  11 39.5306 10.1927   1
   7   6  11 39.5530 10.9538   1
   8   6  11 15.5084 11.0475   1
   9   6  11 33.1073 14.1184   1
   9   6  11 32.1617 3.19672   2
  10   6  11 12.2511 2.31608   2
  11   6  11 20.9041 2.78811   2
  12   6  11 3.58184 1.98348   2
   4  -7 -11 2.63345 1.71338   2
   4  -7 -11 -6.0543 31.0796   1
  -4   7  11 -0.9614 1.55197   3
   3  -7 -11 43.3843 3.54276   2
   3  -7 -11 4.60414 21.1909   1
  -3   7  11 47.3166 4.01238   3
   2  -7 -11 3.38410 1.44910   2
   2  -7 -11 -11.012 20.4882   1
   2  -7 -11 -1.8211 16.9604   1
  -2   7  11 -0.7535 1.46228   3
   1  -7 -11 4.72184 15.6148   1
   1  -7 -11 -17.567 12.7415   1
   1  -7 -11 20.4299 3.25240   2
   0  -7 -11 9.07584 10.3343   1
   0  -7 -11 20.0930 2.25570   2
   0   7  11 19.5481 2.51561   3
  -1  -7 -11 7.07648 10.1910   1
  -1  -7 -11 -5.2376 8.50775   1
  -1  -7 -11 0.00599 1.04914   2
   1   7  11 0.62425 1.13590   3
  -2  -7 -11 116.942 14.6148   1
  -2  -7 -11 126.853 5.07634   2
  -2  -7 -11 106.600 13.6661   1
   2   7  11 133.807 4.96213   3
  -3  -7 -11 5.79048 6.07686   1
  -3  -7 -11 9.32387 7.13317   1
  -3  -7 -11 3.46731 1.17980   2
   3   7  11 4.78378 1.24203   3
  -4  -7 -11 50.3152 7.00064   1
  -4  -7 -11 32.6267 6.37791   1
  -4  -7 -11 41.5725 2.93349   2
   4   7  11 55.2840 11.1221   1
   4   7  11 47.5488 2.38650   3
   5   7  11 46.4089 2.17246   3
   5   7  11 25.5209 9.19010   1
   6   7  11 -5.9578 8.52514   1
   7   7  11 17.2417 9.62576   1
   8   7  11 8.59782 10.8077   1
   9   7  11 10.7349 12.6255   1
   9   7  11 7.54751 1.77461   2
  10   7  11 0.56705 1.49247   2
  11   7  11 15.6559 2.58759   2
  12   7  11 -0.8326 2.02547   2
   3  -8 -11 7.40923 1.89819   2
   3  -8 -11 0.61165 35.6426   1
  -3   8  11 3.35297 2.19019   3
   2  -8 -11 54.5116 24.3283   1
   2  -8 -11 41.9030 3.41830   2
  -2   8  11 40.3249 3.90075   3
   1  -8 -11 34.9657 3.09232   2
   1  -8 -11 28.9824 16.2058   1
  -1   8  11 43.2849 3.63732   3
   0  -8 -11 55.3834 16.7536   1
   0  -8 -11 52.2283 16.9835   1
   0  -8 -11 60.4320 4.03970   2
   0   8  11 51.7053 3.59714   3
  -1  -8 -11 6.17545 9.91844   1
  -1  -8 -11 12.7225 11.9395   1
  -1  -8 -11 13.4101 1.88780   2
   1   8  11 13.3471 2.08723   3
  -2  -8 -11 42.7004 10.7221   1
  -2  -8 -11 48.6853 3.10570   2
  -2  -8 -11 32.7017 9.53090   1
   2   8  11 46.8393 3.05108   3
  -3  -8 -11 9.09476 6.58649   1
  -3  -8 -11 6.53395 1.61086   2
  -3  -8 -11 8.80708 7.18742   1
   3   8  11 11.2486 1.69950   3
  -4  -8 -11 46.1090 3.09442   2
   4   8  11 43.2818 2.54693   3
   5   8  11 60.7033 2.83346   3
   6   8  11 14.8270 9.09773   1
   6   8  11 18.9566 1.56467   3
   7   8  11 4.62885 9.05337   1
   8   8  11 88.2726 16.9011   1
   9   8  11 -4.9029 18.1911   1
   9   8  11 2.15929 1.50218   2
  10   8  11 2.38654 1.74839   2
  11   8  11 25.9210 3.06607   2
   2  -9 -11 -39.025 34.9230   1
   2  -9 -11 1.31253 1.57878   2
  -2   9  11 -2.8568 1.45759   3
   1  -9 -11 103.321 5.04995   2
   1  -9 -11 102.823 26.5197   1
  -1   9  11 98.9982 5.60010   3
   0  -9 -11 10.5660 17.4317   1
   0  -9 -11 2.26197 1.35617   2
   0   9  11 4.14232 2.00863   3
  -1  -9 -11 11.8102 11.7651   1
  -1  -9 -11 13.8326 1.99561   2
  -1  -9 -11 9.67960 13.8159   1
   1   9  11 16.4536 2.48882   3
  -2  -9 -11 1.51690 10.1358   1
  -2  -9 -11 -3.8233 14.1714   1
   2   9  11 3.05626 1.44935   3
  -3  -9 -11 -4.3078 5.71487   1
  -3  -9 -11 0.39015 1.07865   2
  -3  -9 -11 -3.5507 5.49090   1
   3   9  11 0.52094 1.32021   3
  -4  -9 -11 34.8750 2.76256   2
   4   9  11 24.5975 2.31365   3
   5   9  11 13.6183 1.75261   3
   8   9  11 25.9111 9.69959   1
   9   9  11 1.60596 1.60495   2
  10   9  11 5.49597 1.94094   2
  11   9  11 0.72784 2.08672   2
   1 -10 -11 6.69199 1.83478   2
  -1  10  11 3.00164 2.23070   3
   0 -10 -11 1.64094 1.46259   2
   0 -10 -11 -8.4929 23.3151   1
   0  10  11 -2.7354 1.51548   3
  -1 -10 -11 5.49155 1.62567   2
  -1 -10 -11 -20.492 22.5038   1
   1  10  11 3.72878 1.84557   3
  -2 -10 -11 34.4993 11.6243   1
  -2 -10 -11 14.6645 10.0455   1
  -2 -10 -11 21.5222 2.39249   2
   2  10  11 21.1715 2.53435   3
  -3 -10 -11 1.10508 1.16023   2
   3  10  11 2.41772 1.43222   3
  -4 -10 -11 17.1536 2.22110   2
   4  10  11 22.2906 2.60363   3
   9  10  11 30.2306 3.16421   2
  10  10  11 4.38312 1.86875   2
  11  10  11 5.04076 1.99504   2
   0 -11 -11 4.05111 1.70089   2
   0  11  11 4.24049 2.14557   3
  -1 -11 -11 -0.8192 20.4155   1
  -1 -11 -11 4.00918 1.55641   2
   1  11  11 0.83595 1.76813   3
  -2 -11 -11 11.9440 2.00110   2
   2  11  11 11.4204 2.39457   3
  -3 -11 -11 2.14774 1.52566   2
   3  11  11 3.88370 1.87266   3
  -4 -11 -11 24.3894 2.67210   2
   4  11  11 26.2511 2.95376   3
   5  11  11 21.9038 2.64354   3
   6  11  11 -0.4769 1.14383   3
   9  11  11 26.4736 2.94117   2
  10  11  11 49.7597 6.70508   2
  -2 -12 -11 -2.1876 1.36144   2
   2  12  11 1.54745 1.82874   3
  -3 -12 -11 0.41049 1.36546   2
   3  12  11 -1.7766 1.57159   3
   4  12  11 10.1414 2.20782   3
   5  12  11 1.05225 1.63423   3
   6  12  11 -1.0511 1.35668   3
  -4 -11  12 13.7949 19.7910   1
  -3 -11  12 9.80889 29.5573   1
  -2 -11  12 -6.0797 24.9372   1
   6  10 -12 55.8536 32.7315   1
   5  10 -12 47.9004 25.0048   1
   4  10 -12 71.3625 25.9308   1
  -4 -10  12 47.6802 17.5545   1
   3  10 -12 13.5103 21.3313   1
  -3 -10  12 -12.921 18.0169   1
   2  10 -12 20.6012 25.5660   1
  -2 -10  12 -5.3085 20.5187   1
   1  10 -12 48.0509 28.4954   1
  -1 -10  12 -0.1615 23.0996   1
   0  10 -12 49.9235 39.3194   1
  -1  10 -12 -1.0086 34.7596   1
   1 -10  12 5.79687 36.6800   1
   8   9 -12 -1.3431 1.01229   2
   7   9 -12 -18.359 26.6948   1
   6   9 -12 -2.8233 24.0376   1
   5   9 -12 43.8724 22.2605   1
   4   9 -12 19.2142 17.9822   1
  -4  -9  12 25.0884 14.7902   1
   3   9 -12 42.6534 20.7936   1
  -3  -9  12 78.0467 18.1958   1
   2   9 -12 12.3217 20.9147   1
   1   9 -12 98.5451 25.8367   1
  -1  -9  12 79.3794 22.0558   1
   0   9 -12 24.6052 41.3315   1
   0  -9  12 57.0929 20.7356   1
  -1   9 -12 -16.419 24.9090   1
  -2   9 -12 -12.701 28.3166   1
   2  -9  12 -1.7497 27.5090   1
  -3   9 -12 61.0687 41.6993   1
   9   8 -12 -1.0972 1.42577   2
   8   8 -12 3.49566 1.24766   2
   7   8 -12 30.0601 25.3235   1
   7   8 -12 10.6666 1.38352   2
   6   8 -12 -0.1047 0.67718   2
   6   8 -12 -18.515 19.5424   1
   4   8 -12 -3.4868 14.2175   1
  -4  -8  12 14.6440 13.4486   1
   3   8 -12 -8.7454 15.5100   1
   2   8 -12 25.1174 15.1303   1
  -2  -8  12 13.9028 14.2571   1
   1   8 -12 15.0544 18.9476   1
  -1  -8  12 11.3521 14.5038   1
   0   8 -12 19.4777 21.9960   1
  -1   8 -12 62.3955 21.7265   1
   1  -8  12 49.1026 17.6545   1
  -2   8 -12 143.264 28.6708   1
   2  -8  12 114.413 25.1604   1
  -3   8 -12 36.8018 28.8600   1
   3  -8  12 69.9178 29.0876   1
  -4   8 -12 -8.6363 32.5302   1
   4  -8  12 88.5473 38.4353   1
  -5   8 -12 1.86406 1.58975   3
   9   7 -12 44.8169 3.14920   2
  -9  -7  12 48.6111 4.60651   3
   8   7 -12 50.2231 2.96034   2
   8   7 -12 13.5504 27.7906   1
  -8  -7  12 58.0101 4.59145   3
   7   7 -12 34.0270 2.39773   2
   7   7 -12 25.6031 22.0091   1
   6   7 -12 -11.794 16.1886   1
   6   7 -12 -0.4416 0.83132   2
   5   7 -12 -20.641 14.7811   1
   4   7 -12 3.09504 13.2290   1
  -4  -7  12 -1.7423 11.6005   1
   3   7 -12 73.9223 18.5172   1
  -3  -7  12 68.5728 15.2210   1
   2   7 -12 165.475 23.5492   1
  -2  -7  12 143.365 19.4833   1
   0   7 -12 10.4652 13.7717   1
   0  -7  12 12.6327 12.0443   1
  -1   7 -12 13.2378 16.0167   1
   1  -7  12 65.0703 17.8661   1
  -2   7 -12 21.2376 19.9036   1
   2  -7  12 -13.539 31.0536   1
  -3   7 -12 3.74759 19.9814   1
   3  -7  12 11.1360 19.4713   1
   4  -7  12 2.02868 24.0145   1
  -5   7 -12 3.38189 32.1295   1
  -5   7 -12 21.8946 2.50202   3
   5  -7  12 56.7135 33.4297   1
  -6   7 -12 4.71208 1.67721   3
   6  -7  12 5.86259 1.19539   2
   9   6 -12 5.26133 1.52530   2
  -9  -6  12 2.32901 2.14704   3
   8   6 -12 -1.1754 23.2570   1
   8   6 -12 0.41255 1.25278   2
  -8  -6  12 3.07810 1.94453   3
   7   6 -12 24.7336 21.0035   1
   7   6 -12 32.1465 2.38990   2
   7   6 -12 27.8690 20.1988   1
  -7  -6  12 32.3230 3.49232   3
  -7  -6  12 26.9176 2.53787   2
   6   6 -12 53.6064 2.81764   2
   6   6 -12 28.9823 16.3799   1
  -6  -6  12 50.4006 2.58236   2
  -6  -6  12 57.9271 4.05003   3
   5   6 -12 -6.4089 14.4010   1
   4   6 -12 52.1939 2.13758   2
   4   6 -12 53.9893 16.3505   1
  -4  -6  12 46.3200 13.6808   1
  -4  -6  12 49.9269 2.07396   2
   3   6 -12 50.2808 14.7772   1
   2   6 -12 1.75430 10.9121   1
  -2  -6  12 28.0124 12.1946   1
   1   6 -12 7.54179 12.1070   1
  -1  -6  12 0.70765 10.9353   1
   0   6 -12 112.848 18.9639   1
   0  -6  12 125.555 19.5092   1
  -1   6 -12 10.6337 14.3262   1
   1  -6  12 12.4368 13.4408   1
  -2   6 -12 10.8136 14.0295   1
   2  -6  12 -2.9421 14.2937   1
  -3   6 -12 117.561 22.3068   1
   3  -6  12 130.168 23.8479   1
  -4   6 -12 24.1063 22.8089   1
   4  -6  12 29.5344 22.5419   1
   4  -6  12 44.4418 1.89580   2
   4  -6  12 38.4374 1.81768   2
  -5   6 -12 34.6659 25.2653   1
   5  -6  12 29.8110 25.3399   1
  -6   6 -12 -8.3824 32.8245   1
  -6   6 -12 -2.1881 1.07703   3
   6  -6  12 -58.540 37.0066   1
   6  -6  12 -2.2728 0.82211   2
  -7   6 -12 6.47708 1.63127   3
   7  -6  12 -1.5653 1.05708   2
   9   5 -12 5.18043 1.65331   2
  -9  -5  12 5.25894 2.19541   3
   8   5 -12 -3.5227 31.0278   1
   8   5 -12 0.27678 1.33505   2
  -8  -5  12 -1.7595 1.69635   3
   7   5 -12 27.7177 2.50328   2
   7   5 -12 18.5867 36.0699   1
  -7  -5  12 22.8280 2.92666   3
   6   5 -12 1.12015 1.12522   2
  -6  -5  12 1.62298 1.77915   3
   5   5 -12 11.3368 14.8141   1
   5   5 -12 7.24989 1.25391   2
  -5  -5  12 9.86778 1.24257   2
  -5  -5  12 8.83337 2.07276   3
   4   5 -12 107.175 20.9505   1
   4   5 -12 116.760 4.32197   2
  -4  -5  12 112.172 5.16503   3
  -4  -5  12 111.684 3.86763   2
   3   5 -12 139.469 4.30210   2
  -3  -5  12 119.873 16.6052   1
  -3  -5  12 139.671 4.29602   2
   2   5 -12 25.8582 12.8137   1
   2   5 -12 26.1136 1.25892   2
  -2  -5  12 20.1296 11.1322   1
  -2  -5  12 23.0387 1.18450   2
   1   5 -12 476.518 34.9997   1
  -1  -5  12 451.311 28.7811   1
   0   5 -12 12.2057 10.9503   1
   0  -5  12 12.4722 9.69009   1
  -1   5 -12 15.4676 11.3271   1
   1  -5  12 3.43518 10.0552   1
  -2   5 -12 112.597 19.5680   1
   2  -5  12 122.810 20.3053   1
  -3   5 -12 -17.495 12.6171   1
   3  -5  12 17.8000 14.4229   1
   3  -5  12 4.17591 0.66604   2
   3  -5  12 2.60491 0.68467   2
  -4   5 -12 -22.171 15.4807   1
   4  -5  12 5.31107 15.7332   1
   4  -5  12 9.43359 1.03203   2
  -5   5 -12 4.40981 22.3957   1
  -5   5 -12 32.9813 2.30991   3
   5  -5  12 39.4122 21.4583   1
   5  -5  12 31.1062 2.00095   2
   5  -5  12 30.7687 1.93990   2
  -6   5 -12 16.7536 25.2485   1
   6  -5  12 22.6417 29.6391   1
  -7   5 -12 17.6367 1.99620   3
  -7   5 -12 28.9077 36.4719   1
   7  -5  12 42.9888 36.7260   1
   7  -5  12 21.3321 1.96439   2
   9   4 -12 1.69001 1.49328   2
  -9  -4  12 3.72159 2.17306   3
   8   4 -12 -2.2457 1.22255   2
   8   4 -12 2.79657 30.1739   1
   8   4 -12 -12.120 24.6593   1
  -8  -4  12 1.89961 1.94146   3
   7   4 -12 58.2292 23.1288   1
   7   4 -12 48.7657 22.2887   1
   7   4 -12 91.5632 4.24608   2
  -7  -4  12 96.0139 5.24528   3
   6   4 -12 74.3698 19.6768   1
   6   4 -12 74.4664 3.50234   2
   6   4 -12 61.3596 18.2974   1
  -6  -4  12 62.2318 3.26122   2
  -6  -4  12 67.4024 4.25650   3
   5   4 -12 37.6618 2.52333   2
   5   4 -12 29.1431 16.1003   1
  -5  -4  12 36.3948 3.08127   3
  -5  -4  12 41.5530 2.32024   2
   4   4 -12 7.71541 1.20505   2
  -4  -4  12 10.5624 1.21449   2
  -4  -4  12 11.2852 2.58394   3
  -4  -4  12 15.7227 10.3528   1
   3   4 -12 5.68695 17.1663   1
   3   4 -12 2.64474 0.99697   2
  -3  -4  12 2.43388 0.76719   2
  -3  -4  12 3.33366 1.43058   3
  -3  -4  12 4.75874 8.94679   1
   2   4 -12 3.35810 9.09493   1
   2   4 -12 2.15388 0.75269   2
  -2  -4  12 1.43917 8.41214   1
  -2  -4  12 -0.5090 0.54497   2
   1   4 -12 600.259 16.1752   2
   1   4 -12 603.851 34.1842   1
  -1  -4  12 654.069 34.4658   1
  -1  -4  12 605.814 16.1588   2
   0   4 -12 239.161 23.3546   1
   0  -4  12 248.579 26.8961   1
   0  -4  12 255.994 6.96984   2
  -1   4 -12 1.12971 10.2364   1
   1  -4  12 -10.588 9.83476   1
   1  -4  12 4.37936 0.66665   2
   1  -4  12 3.61917 0.60137   2
  -2   4 -12 56.9576 15.1312   1
   2  -4  12 43.5752 1.85237   2
   2  -4  12 50.5453 12.8164   1
   2  -4  12 42.8122 1.78431   2
  -3   4 -12 59.3513 16.4442   1
   3  -4  12 50.2785 2.15582   2
   3  -4  12 57.8623 16.1269   1
   3  -4  12 55.3678 2.22904   2
  -4   4 -12 67.2506 17.3904   1
   4  -4  12 74.6496 18.3932   1
   4  -4  12 62.8659 2.66489   2
   4  -4  12 60.7837 2.57754   2
  -5   4 -12 68.3929 20.7147   1
  -5   4 -12 55.4188 2.64058   3
   5  -4  12 52.5134 2.57762   2
   5  -4  12 48.0903 20.1629   1
   5  -4  12 43.8836 2.38659   2
  -6   4 -12 17.3106 20.5491   1
  -6   4 -12 11.7964 1.53396   3
   6  -4  12 -5.8401 24.4465   1
   6  -4  12 9.54545 1.49623   2
   6  -4  12 12.2896 1.46202   2
  -7   4 -12 16.0044 1.75143   3
  -7   4 -12 12.1064 27.3849   1
   7  -4  12 44.3271 29.5003   1
   7  -4  12 18.9878 1.93876   2
   8  -4  12 65.1427 47.4863   1
   9   3 -12 -2.0688 1.34083   2
  -9  -3  12 0.24344 1.79151   3
   8   3 -12 0.10419 1.32665   2
   8   3 -12 2.80911 28.0426   1
   8   3 -12 3.13016 27.2641   1
  -8  -3  12 -4.5672 1.35951   3
   7   3 -12 0.80679 19.4385   1
   7   3 -12 -3.1335 20.6702   1
   7   3 -12 0.34260 1.22002   2
  -7  -3  12 -0.6359 1.55185   3
   6   3 -12 3.54151 1.30392   2
   6   3 -12 -10.329 15.5829   1
   6   3 -12 13.0122 17.3462   1
  -6  -3  12 3.76913 1.85108   3
   5   3 -12 56.0023 15.4744   1
   5   3 -12 35.0725 2.54002   2
  -5  -3  12 26.9534 2.81250   3
   4   3 -12 1.50546 1.03820   2
   4   3 -12 -8.0645 10.0922   1
  -4  -3  12 -14.518 9.04645   1
  -4  -3  12 1.43174 1.41913   3
  -4  -3  12 0.79364 0.81095   2
   3   3 -12 281.541 8.38798   2
   3   3 -12 286.742 25.2104   1
  -3  -3  12 268.510 22.6988   1
  -3  -3  12 279.168 9.12560   3
  -3  -3  12 282.579 8.24743   2
   2   3 -12 126.295 17.3825   1
   2   3 -12 133.603 4.51249   2
  -2  -3  12 153.839 21.3595   1
  -2  -3  12 139.503 5.20574   3
  -2  -3  12 141.644 4.82656   2
   1   3 -12 9.59627 1.05668   2
   1   3 -12 4.31155 7.69281   1
  -1  -3  12 11.1144 1.65991   3
  -1  -3  12 0.17089 7.48507   1
  -1  -3  12 10.5611 1.04299   2
   0   3 -12 4.92870 0.83430   2
   0   3 -12 9.42657 8.92452   1
   0  -3  12 19.2403 8.99633   1
   0  -3  12 5.42588 0.81137   2
  -1   3 -12 125.571 16.7359   1
   1  -3  12 120.952 3.84407   2
   1  -3  12 134.583 17.2912   1
  -2   3 -12 18.7122 10.5033   1
   2  -3  12 26.8033 1.49923   2
   2  -3  12 21.0349 10.8304   1
   2  -3  12 24.5609 1.58468   2
  -3   3 -12 5.66843 11.1805   1
   3  -3  12 6.24637 0.97392   2
   3  -3  12 7.59170 12.0542   1
  -4   3 -12 66.2124 15.3031   1
   4  -3  12 81.2736 16.7816   1
   4  -3  12 85.1027 3.19154   2
  -5   3 -12 136.351 32.3941   1
  -5   3 -12 100.575 3.61995   3
   5  -3  12 95.4239 3.77091   2
   5  -3  12 114.778 21.4447   1
   5  -3  12 107.533 3.92457   2
  -6   3 -12 4.50164 0.99916   3
  -6   3 -12 -8.4335 16.0353   1
   6  -3  12 10.2994 18.1907   1
   6  -3  12 3.88181 1.17912   2
  -7   3 -12 2.42132 0.99762   3
  -7   3 -12 -10.061 23.8416   1
   7  -3  12 2.65671 1.21766   2
   7  -3  12 -6.1251 22.3407   1
  -8   3 -12 1.59500 29.0209   1
   8  -3  12 4.69107 1.85649   2
   8  -3  12 5.52007 30.2207   1
   9  -3  12 4.70352 1.61679   2
   9   2 -12 2.25179 1.69057   2
  -9  -2  12 -1.2329 1.94077   3
   8   2 -12 5.67526 34.6452   1
   8   2 -12 -3.6699 27.8962   1
   7   2 -12 -0.5073 20.1177   1
   7   2 -12 14.2007 1.92687   2
   7   2 -12 11.5342 22.1757   1
  -7  -2  12 13.0666 2.53577   3
   6   2 -12 29.2837 17.5117   1
   6   2 -12 42.9114 19.7473   1
   6   2 -12 39.4938 2.85071   2
  -6  -2  12 36.1258 3.30626   3
   5   2 -12 11.1622 1.67690   2
   5   2 -12 17.5985 14.6221   1
   5   2 -12 4.96365 12.9620   1
  -5  -2  12 11.4398 1.52972   2
  -5  -2  12 9.87254 2.04685   3
   4   2 -12 21.2446 1.89560   2
   4   2 -12 32.6382 12.3030   1
  -4  -2  12 17.5483 1.75365   2
  -4  -2  12 19.4245 2.45045   3
   3   2 -12 112.897 16.4985   1
   3   2 -12 109.013 4.13162   2
  -3  -2  12 111.138 4.00607   2
  -3  -2  12 90.1990 15.6196   1
  -3  -2  12 108.088 4.65228   3
   2   2 -12 33.5567 11.0668   1
  -2  -2  12 49.6929 2.84881   3
  -2  -2  12 53.2980 2.41266   2
  -2  -2  12 53.4794 11.5316   1
   1   2 -12 700.619 35.9811   1
   1   2 -12 709.210 19.7326   2
  -1  -2  12 747.798 36.1694   1
  -1  -2  12 718.944 19.8364   3
  -1  -2  12 727.661 19.3554   2
   0   2 -12 42.6971 2.05640   2
   0   2 -12 35.7287 10.4149   1
   0  -2  12 38.0124 1.92493   2
   0  -2  12 41.5264 2.23314   3
   0  -2  12 35.3560 10.1865   1
  -1   2 -12 18.7661 9.12847   1
   1  -2  12 39.1013 1.86264   2
   1  -2  12 43.7502 10.6603   1
  -2   2 -12 359.631 24.8131   1
   2  -2  12 331.362 9.92939   2
   2  -2  12 380.574 26.1125   1
  -3   2 -12 3.30562 9.19015   1
   3  -2  12 7.27803 0.98400   2
   3  -2  12 9.74210 10.0704   1
  -4   2 -12 -1.4693 9.49851   1
   4  -2  12 -7.5406 9.68363   1
   4  -2  12 0.12975 0.74192   2
   4  -2  12 1.38548 0.86117   2
   5  -2  12 74.0846 3.25156   2
   5  -2  12 64.7458 15.7309   1
   5  -2  12 71.6932 3.10790   2
  -6   2 -12 16.5911 16.8525   1
   6  -2  12 19.4878 1.89507   2
   6  -2  12 30.5862 16.6081   1
  -7   2 -12 14.5085 20.1862   1
   7  -2  12 4.25915 19.1263   1
  -8   2 -12 20.0679 27.8191   1
   8  -2  12 -4.0065 24.4551   1
   8  -2  12 15.4146 1.97261   2
   9  -2  12 88.2465 41.4021   1
   9   1 -12 -1.0255 1.58662   2
  -9  -1  12 -0.3381 2.66270   3
   8   1 -12 0.58221 1.71265   2
   8   1 -12 -2.6752 35.6765   1
   8   1 -12 6.00984 37.4648   1
  -8  -1  12 1.57262 2.05870   3
   7   1 -12 15.2790 26.2971   1
   7   1 -12 21.8440 2.40148   2
   7   1 -12 45.3084 24.3777   1
  -7  -1  12 19.5264 2.78911   3
   6   1 -12 18.6790 2.11636   2
   6   1 -12 8.71461 20.7665   1
   6   1 -12 -13.119 16.6188   1
   5   1 -12 9.63954 24.0326   1
   5   1 -12 -30.132 13.9975   1
   5   1 -12 5.77645 1.36006   2
  -5  -1  12 9.45054 2.22359   3
   4   1 -12 109.405 17.7636   1
   4   1 -12 121.601 20.2743   1
   4   1 -12 135.710 5.09516   2
  -4  -1  12 146.654 6.48299   3
  -4  -1  12 130.445 5.39277   2
   3   1 -12 357.067 10.4805   2
   3   1 -12 348.115 26.8828   1
  -3  -1  12 356.480 11.0039   3
  -3  -1  12 367.130 26.9352   1
  -3  -1  12 345.121 10.3595   2
   2   1 -12 229.783 6.93526   2
   2   1 -12 207.902 20.5732   1
  -2  -1  12 231.223 20.6265   1
  -2  -1  12 218.351 6.79681   2
  -2  -1  12 209.170 7.18106   3
   1   1 -12 1081.79 45.7896   1
  -1  -1  12 1082.86 28.6427   3
  -1  -1  12 1106.08 46.1808   1
  -1  -1  12 1013.32 28.1720   2
   0   1 -12 31.8842 2.30708   2
   0   1 -12 27.6801 9.40571   1
   0  -1  12 33.5052 1.98779   3
   0  -1  12 33.8254 1.90881   2
   0  -1  12 26.3427 9.31292   1
  -1   1 -12 115.248 15.1683   1
   1  -1  12 101.428 14.5553   1
   1  -1  12 122.192 4.01450   2
  -2   1 -12 156.372 18.2380   1
   2  -1  12 193.790 18.4827   1
   2  -1  12 181.007 5.57248   2
  -3   1 -12 5.71207 7.61111   1
   3  -1  12 10.1647 1.15895   2
   3  -1  12 10.4453 9.28594   1
  -4   1 -12 176.309 19.1012   1
   4  -1  12 158.892 5.37602   2
   4  -1  12 163.968 19.8135   1
   4  -1  12 171.548 5.55264   2
   5  -1  12 -1.8045 10.2628   1
   5  -1  12 0.51881 0.81773   2
   5  -1  12 3.17956 1.11721   2
  -6   1 -12 8.15259 13.4250   1
   6  -1  12 27.7384 14.9852   1
  -7   1 -12 23.1082 15.9130   1
   7  -1  12 12.8043 16.7015   1
   8  -1  12 5.81516 1.49349   2
   8  -1  12 5.87445 20.6623   1
   9  -1  12 3.32883 1.36310   2
   9  -1  12 5.05118 28.3637   1
  10  -1  12 -1.7913 1.47373   2
   8   0 -12 -0.0195 34.4341   1
   8   0 -12 -0.8004 1.47864   2
   8   0 -12 -25.588 42.1498   1
  -8   0  12 2.40867 1.99635   3
   7   0 -12 -1.4213 26.4252   1
   7   0 -12 0.30558 26.8017   1
   7   0 -12 -3.8513 1.16616   2
  -7   0  12 1.22028 1.83847   3
   6   0 -12 -2.8178 19.9805   1
   6   0 -12 16.0756 20.8112   1
   6   0 -12 15.9080 1.96785   2
  -6   0  12 11.3019 2.14542   3
   5   0 -12 9.46567 1.64976   2
   5   0 -12 24.7803 16.3265   1
   5   0 -12 18.7966 14.3822   1
  -5   0  12 8.52969 2.03871   3
   4   0 -12 11.0813 1.58313   2
   4   0 -12 18.8077 15.4971   1
   4   0 -12 14.0894 12.2259   1
  -4   0  12 15.8899 1.69235   2
  -4   0  12 15.3495 2.33684   3
   3   0 -12 -1.3516 0.95857   2
   3   0 -12 -5.0115 9.69255   1
  -3   0  12 1.87575 1.16876   3
  -3   0  12 1.30194 0.82529   2
   2   0 -12 -0.2423 0.89028   2
   2   0 -12 -1.8278 9.36187   1
  -2   0  12 -0.6937 0.73244   2
  -2   0  12 -0.2702 0.95602   3
  -2   0  12 -8.0569 8.14598   1
   1   0 -12 28.0791 10.1778   1
   1   0 -12 22.8248 1.98414   2
  -1   0  12 25.7810 1.96977   3
  -1   0  12 26.7234 1.86983   2
  -1   0  12 18.7103 9.20386   1
   0   0 -12 659.932 18.4411   2
   0   0 -12 677.486 33.5281   1
   0   0  12 658.824 18.3867   3
   0   0  12 691.868 18.3977   2
   0   0  12 711.356 35.0099   1
  -1   0 -12 364.232 24.2778   1
   1   0  12 421.196 11.4601   2
   1   0  12 411.532 25.0819   1
  -2   0 -12 31.8993 9.06956   1
   2   0  12 46.8541 10.6689   1
   2   0  12 44.3837 2.19224   2
  -3   0 -12 6.54959 7.99019   1
   3   0  12 5.78707 9.05186   1
   3   0  12 8.08259 1.12494   2
  -4   0 -12 273.024 21.7939   1
   4   0  12 321.599 24.2803   1
   4   0  12 280.532 8.48985   2
  -5   0 -12 17.3260 16.2388   1
   5   0  12 13.3796 10.6570   1
   5   0  12 24.6644 1.96238   2
   5   0  12 20.1180 1.86285   2
  -6   0 -12 68.6229 16.2193   1
   6   0  12 80.0746 18.2226   1
   6   0  12 78.9744 3.63157   2
  -7   0 -12 20.1806 13.1506   1
   7   0  12 1.32296 1.15878   2
   7   0  12 -6.0619 14.8365   1
  -8   0 -12 8.26109 19.0144   1
   8   0  12 9.25718 1.61020   2
   8   0  12 13.0325 18.3956   1
  -9   0 -12 -19.451 29.3285   1
   9   0  12 -17.349 26.7006   1
  10   0  12 -0.7468 1.41731   2
   8  -1 -12 55.0049 41.8662   1
   8  -1 -12 15.6362 49.4872   1
  -8   1  12 26.9301 4.00471   3
   7  -1 -12 -34.500 33.0216   1
   7  -1 -12 -18.470 27.3695   1
   6  -1 -12 17.1632 22.6278   1
   6  -1 -12 -0.7689 20.1075   1
  -6   1  12 -0.1647 1.45934   3
   5  -1 -12 2.97430 1.34554   2
   5  -1 -12 -1.1690 16.7639   1
   5  -1 -12 -15.963 18.1198   1
  -5   1  12 3.08661 1.56952   3
   4  -1 -12 -2.7071 12.3206   1
   4  -1 -12 14.5272 13.5588   1
   4  -1 -12 7.79378 1.57727   2
  -4   1  12 11.1524 1.87140   3
   3  -1 -12 28.1526 2.43182   2
   3  -1 -12 29.6741 11.5483   1
   3  -1 -12 33.4139 13.1281   1
  -3   1  12 28.9816 2.50433   3
  -3   1  12 35.3837 2.35174   2
   2  -1 -12 393.025 11.3985   2
   2  -1 -12 376.923 26.8355   1
  -2   1  12 387.064 28.7108   1
  -2   1  12 384.473 11.3256   2
  -2   1  12 383.732 11.5857   3
   1  -1 -12 251.937 7.66876   2
   1  -1 -12 223.635 19.6414   1
  -1   1  12 236.274 20.7217   1
  -1   1  12 247.715 7.71853   3
  -1   1  12 241.560 7.52929   2
   0  -1 -12 43.1338 2.45696   2
   0  -1 -12 43.7979 10.7608   1
   0   1  12 43.7316 2.30110   3
   0   1  12 47.3885 2.40694   2
   0   1  12 45.7619 10.7321   1
  -1  -1 -12 445.581 12.2128   2
  -1  -1 -12 423.901 25.0309   1
   1   1  12 422.739 12.0975   2
   1   1  12 418.465 12.2395   3
   1   1  12 432.876 25.7944   1
  -2  -1 -12 142.013 15.4771   1
  -2  -1 -12 128.451 4.51018   2
   2   1  12 125.183 3.86426   3
   2   1  12 125.446 4.40016   2
   2   1  12 120.524 16.0676   1
  -3  -1 -12 91.1436 12.6155   1
   3   1  12 106.661 14.9239   1
   3   1  12 76.9695 3.21298   2
  -4  -1 -12 282.233 20.8999   1
   4   1  12 264.892 8.22326   2
   4   1  12 285.809 21.8434   1
   5   1  12 39.6436 11.1053   1
   5   1  12 39.7388 2.38296   2
  -6  -1 -12 298.444 22.8183   1
   6   1  12 267.248 8.79364   2
   6   1  12 298.659 24.9044   1
   6   1  12 289.044 8.91052   2
  -7  -1 -12 31.9672 13.2974   1
   7   1  12 53.8408 16.4948   1
   7   1  12 64.9687 3.41523   2
  -8  -1 -12 -14.186 15.6132   1
   8   1  12 2.86243 1.33190   2
   8   1  12 15.6110 16.3662   1
  -9  -1 -12 38.4165 21.8679   1
   9   1  12 65.6266 3.97132   2
   9   1  12 46.2138 22.3160   1
  10   1  12 2.13642 1.52918   2
  11   1  12 2.44327 1.85549   2
   7  -2 -12 15.0362 33.0545   1
   7  -2 -12 6.26781 36.2718   1
   6  -2 -12 14.8902 26.2682   1
   6  -2 -12 31.3698 26.0722   1
   5  -2 -12 6.23943 18.8722   1
   5  -2 -12 -0.0891 17.2509   1
   4  -2 -12 -1.3808 1.05636   2
   4  -2 -12 -0.3827 14.6119   1
   4  -2 -12 -22.487 12.8919   1
  -4   2  12 0.56100 1.38090   3
   3  -2 -12 130.605 5.22129   2
   3  -2 -12 97.9318 16.5540   1
   3  -2 -12 155.481 22.1272   1
  -3   2  12 146.751 6.73073   3
   2  -2 -12 0.55943 1.02360   2
   2  -2 -12 4.19469 8.84873   1
   2  -2 -12 -6.6747 9.74030   1
  -2   2  12 1.38173 0.95542   2
  -2   2  12 0.47226 1.11785   3
   1  -2 -12 26.7591 2.32685   2
   1  -2 -12 25.4420 9.89907   1
  -1   2  12 25.0497 2.04284   3
  -1   2  12 20.4119 1.93772   2
  -1   2  12 31.3746 11.9817   1
   0  -2 -12 27.3379 2.12952   2
   0  -2 -12 30.0632 9.68931   1
   0   2  12 35.2634 10.9567   1
   0   2  12 27.2932 1.99480   2
   0   2  12 25.9838 1.87202   3
  -1  -2 -12 31.8946 9.28741   1
  -1  -2 -12 45.9041 2.54585   2
   1   2  12 37.5624 10.5080   1
   1   2  12 46.6876 2.44138   2
   1   2  12 45.4530 2.12075   3
  -2  -2 -12 31.0990 2.18171   2
  -2  -2 -12 37.6057 9.46028   1
   2   2  12 37.1289 9.76683   1
   2   2  12 32.5898 1.55595   3
   2   2  12 34.3541 2.12382   2
  -3  -2 -12 124.042 14.4124   1
  -3  -2 -12 124.291 4.55910   2
   3   2  12 124.186 15.7937   1
   3   2  12 123.550 4.45448   2
  -4  -2 -12 204.008 17.6587   1
   4   2  12 198.008 6.45825   2
   4   2  12 199.694 19.7512   1
  -5  -2 -12 91.4006 14.0616   1
   5   2  12 70.3705 3.25784   2
  -6  -2 -12 108.116 15.0819   1
   6   2  12 62.2679 14.4881   1
   6   2  12 76.2706 3.55136   2
  -7  -2 -12 -7.4720 10.1924   1
   7   2  12 -7.0149 13.0096   1
   7   2  12 -1.4115 1.07057   2
  -8  -2 -12 -1.9442 13.6543   1
   8   2  12 0.41852 14.5335   1
   8   2  12 8.18225 1.64430   2
  -9  -2 -12 -21.867 17.6474   1
   9   2  12 -14.024 20.0492   1
   9   2  12 1.82145 1.35366   2
  10   2  12 59.6060 4.06949   2
  11   2  12 50.4302 4.06663   2
   7  -3 -12 -7.2458 46.9339   1
   7  -3 -12 11.5887 4.04073   2
  -7   3  12 13.1483 3.05244   3
   6  -3 -12 32.1045 28.4294   1
   6  -3 -12 3.22297 1.76169   2
   6  -3 -12 1.39542 36.0886   1
  -6   3  12 1.11887 1.87861   3
   5  -3 -12 4.55803 1.59324   2
   5  -3 -12 -8.6595 19.7325   1
   5  -3 -12 -3.7490 21.5391   1
  -5   3  12 8.39170 2.27405   3
   4  -3 -12 -5.7034 15.1946   1
   4  -3 -12 7.00915 16.4974   1
  -4   3  12 2.23432 1.54931   3
   3  -3 -12 7.33433 14.5055   1
   3  -3 -12 49.3786 15.6971   1
   3  -3 -12 49.4496 3.16855   2
  -3   3  12 50.8621 3.31921   3
   2  -3 -12 153.527 29.2174   1
   2  -3 -12 133.862 24.3617   1
   2  -3 -12 134.969 5.24838   2
  -2   3  12 133.589 5.39080   3
   1  -3 -12 16.2218 1.82906   2
   1  -3 -12 3.76675 8.69023   1
   1  -3 -12 32.2366 12.7872   1
  -1   3  12 14.2152 1.66124   2
  -1   3  12 12.3565 1.63729   3
   0  -3 -12 150.594 17.3065   1
   0  -3 -12 144.709 15.9458   1
   0  -3 -12 131.955 4.93554   2
   0   3  12 138.515 17.5873   1
   0   3  12 131.267 4.76604   3
   0   3  12 127.094 4.83288   2
  -1  -3 -12 62.9550 3.06303   2
  -1  -3 -12 65.1531 11.5982   1
   1   3  12 62.3447 2.69213   3
   1   3  12 60.4005 2.96109   2
   1   3  12 62.4666 11.7576   1
  -2  -3 -12 164.707 15.4544   1
  -2  -3 -12 176.121 6.08848   2
   2   3  12 186.558 5.54744   3
   2   3  12 182.884 6.03496   2
   2   3  12 200.454 19.4298   1
  -3  -3 -12 89.1642 3.76858   2
  -3  -3 -12 92.9004 12.2479   1
   3   3  12 96.2272 14.4424   1
   3   3  12 87.6517 3.65234   2
  -4  -3 -12 32.8106 8.72227   1
   4   3  12 37.5140 10.5916   1
   4   3  12 58.9591 2.81899   2
  -5  -3 -12 12.9310 7.85891   1
   5   3  12 4.30991 8.95287   1
   5   3  12 9.39538 1.86359   2
  -6  -3 -12 37.3263 9.89390   1
   6   3  12 29.6379 11.1116   1
   6   3  12 36.9531 2.48581   2
  -7  -3 -12 4.69225 10.2186   1
   7   3  12 31.7254 2.74341   2
   7   3  12 32.6460 12.6020   1
  -8  -3 -12 35.4064 14.8109   1
   8   3  12 37.6220 15.2041   1
   8   3  12 46.6678 3.34274   2
  -9  -3 -12 25.5265 15.7876   1
   9   3  12 7.08151 1.81733   2
   9   3  12 -1.1640 17.1708   1
  10   3  12 0.36934 1.31029   2
  11   3  12 6.37817 2.01811   2
   6  -4 -12 7.14021 2.07214   2
   6  -4 -12 -10.363 55.7541   1
  -6   4  12 5.46632 2.40313   3
   5  -4 -12 35.6773 29.3864   1
   5  -4 -12 41.5008 3.50350   2
  -5   4  12 44.6329 3.83820   3
   4  -4 -12 23.3299 20.3554   1
   4  -4 -12 10.6777 18.2376   1
   3  -4 -12 32.6932 2.81641   2
   3  -4 -12 15.8731 14.8056   1
   3  -4 -12 27.1693 17.5547   1
  -3   4  12 30.7760 2.92526   3
   2  -4 -12 15.2779 10.8714   1
   2  -4 -12 -0.3037 12.7436   1
   2  -4 -12 0.55835 1.10621   2
  -2   4  12 2.49716 1.45829   3
   1  -4 -12 144.776 18.0009   1
   1  -4 -12 130.534 5.19688   2
   1  -4 -12 127.136 18.5191   1
  -1   4  12 138.244 5.32513   3
   0  -4 -12 78.6100 3.65065   2
   0  -4 -12 74.1786 14.1908   1
   0  -4 -12 73.5823 13.1198   1
   0   4  12 79.5448 3.53257   3
   0   4  12 77.4713 3.51951   2
  -1  -4 -12 154.215 5.50519   2
   1   4  12 154.724 18.8663   1
   1   4  12 153.626 5.23611   3
  -2  -4 -12 329.950 9.72207   2
  -2  -4 -12 337.397 32.0775   1
   2   4  12 312.496 9.55945   2
   2   4  12 325.505 24.1092   1
   2   4  12 302.303 9.09217   3
  -3  -4 -12 150.767 5.36704   2
   3   4  12 145.846 4.49710   3
   3   4  12 147.644 5.24184   2
  -4  -4 -12 4.97536 6.63174   1
   4   4  12 35.2392 9.88958   1
   4   4  12 25.6991 2.44771   2
  -5  -4 -12 70.2454 10.7833   1
   5   4  12 67.9790 3.31540   2
   5   4  12 64.3778 12.6796   1
  -6  -4 -12 8.68705 8.14492   1
   6   4  12 13.1835 9.87727   1
   6   4  12 10.4616 1.59423   2
  -7  -4 -12 48.6269 11.5312   1
   7   4  12 69.3196 14.7835   1
  -8  -4 -12 -0.2388 10.8690   1
   8   4  12 -0.3988 1.13313   2
   8   4  12 12.3016 13.0470   1
  -9  -4 -12 8.95354 13.4531   1
   9   4  12 5.07942 16.7047   1
  10   4  12 -0.3945 1.35439   2
  11   4  12 1.01987 1.81808   2
   6  -5 -12 7.25255 1.84705   2
  -6   5  12 9.49691 2.88041   3
   5  -5 -12 7.51194 2.03903   2
   5  -5 -12 18.9939 31.4841   1
  -5   5  12 3.12413 2.15758   3
   4  -5 -12 -14.111 25.7484   1
   4  -5 -12 -5.4050 21.9619   1
   3  -5 -12 18.3396 15.7773   1
   3  -5 -12 30.8879 2.93920   2
  -3   5  12 19.6481 2.42496   3
   2  -5 -12 90.5157 17.5871   1
   2  -5 -12 68.9442 3.82637   2
   2  -5 -12 52.4807 17.0615   1
  -2   5  12 72.3604 3.97853   3
   1  -5 -12 5.53811 12.5623   1
   1  -5 -12 16.6332 1.94959   2
   1  -5 -12 8.78742 11.4963   1
  -1   5  12 17.0504 2.52056   3
   0  -5 -12 4.25464 9.14340   1
   0  -5 -12 0.22429 1.06997   2
   0  -5 -12 -9.5020 9.42911   1
   0   5  12 4.49237 1.49053   3
  -1  -5 -12 0.90234 7.71621   1
  -1  -5 -12 3.70817 1.27197   2
  -1  -5 -12 9.62421 9.19578   1
   1   5  12 3.81065 1.27387   3
   1   5  12 3.61435 1.10093   2
  -2  -5 -12 -0.6739 7.74461   1
  -2  -5 -12 1.23323 1.00329   2
  -2  -5 -12 -9.2324 6.12904   1
   2   5  12 3.16427 7.98740   1
   2   5  12 2.31252 0.94926   3
   2   5  12 0.23631 0.94866   2
  -3  -5 -12 46.1972 2.80956   2
  -3  -5 -12 56.3358 9.70270   1
   3   5  12 38.8130 10.5938   1
   3   5  12 49.4490 2.22541   3
   3   5  12 45.5922 2.72716   2
  -4  -5 -12 23.8308 2.36662   2
  -4  -5 -12 29.9810 7.94914   1
   4   5  12 28.1786 9.50390   1
   4   5  12 25.4491 2.19321   2
   4   5  12 28.7789 1.42520   3
  -5  -5 -12 23.8265 7.82770   1
   5   5  12 15.6775 1.59958   2
   5   5  12 19.4252 9.37110   1
  -6  -5 -12 -0.2806 7.14369   1
   6   5  12 21.0058 10.0256   1
  -7  -5 -12 20.4403 8.85361   1
   7   5  12 34.6149 11.8570   1
  -8  -5 -12 -6.8235 9.30363   1
   8   5  12 -1.1065 1.17541   2
   8   5  12 -15.341 11.6280   1
  -9  -5 -12 106.589 18.0782   1
   9   5  12 123.842 5.50452   2
   9   5  12 87.2489 19.6944   1
  10   5  12 1.64143 1.63495   2
  11   5  12 0.30053 1.50525   2
   5  -6 -12 3.33479 2.22608   2
  -5   6  12 6.21982 2.20618   3
   4  -6 -12 6.48087 1.85317   2
   4  -6 -12 23.4172 27.1539   1
  -4   6  12 9.39003 2.48332   3
   3  -6 -12 15.3716 22.2633   1
   3  -6 -12 43.5588 19.2792   1
   2  -6 -12 12.1580 16.4659   1
   2  -6 -12 1.21109 16.7499   1
   2  -6 -12 3.53535 1.44056   2
  -2   6  12 3.82248 1.64486   3
   1  -6 -12 -27.099 11.7149   1
   1  -6 -12 -20.189 15.0732   1
   0  -6 -12 17.3630 10.4632   1
   0  -6 -12 13.4734 12.3398   1
  -1  -6 -12 4.65005 1.34951   2
  -1  -6 -12 5.94953 16.2670   1
  -1  -6 -12 12.3568 9.03965   1
   1   6  12 7.39067 1.58417   3
  -2  -6 -12 24.7538 9.09200   1
  -2  -6 -12 23.5046 15.0357   1
  -2  -6 -12 40.1968 2.74808   2
   2   6  12 37.2450 2.37886   3
  -3  -6 -12 108.746 13.4597   1
  -3  -6 -12 121.388 4.85903   2
  -3  -6 -12 113.032 13.8363   1
   3   6  12 125.724 4.39561   3
   3   6  12 127.103 16.3109   1
  -4  -6 -12 159.376 13.6887   1
  -4  -6 -12 157.582 5.85315   2
  -4  -6 -12 166.413 14.7407   1
   4   6  12 156.804 17.1900   1
   4   6  12 155.593 5.00901   3
  -5  -6 -12 -0.7090 6.18474   1
  -5  -6 -12 -4.1983 5.92639   1
   5   6  12 2.05919 8.40221   1
  -6  -6 -12 3.76789 5.88430   1
  -6  -6 -12 0.68379 5.56452   1
   6   6  12 6.67913 9.28622   1
  -7  -6 -12 1.83772 5.47914   1
   7   6  12 -8.0831 9.73013   1
  -8  -6 -12 -0.3436 4.61434   1
   8   6  12 0.73184 2.21806   2
   8   6  12 3.25047 13.3408   1
   9   6  12 10.5465 13.4702   1
   9   6  12 23.0793 2.61830   2
  10   6  12 -0.5801 1.60521   2
  11   6  12 27.9693 3.18165   2
   4  -7 -12 3.74040 1.78684   2
  -4   7  12 1.04361 1.89748   3
   3  -7 -12 9.90712 26.4958   1
   3  -7 -12 21.8516 2.64902   2
  -3   7  12 27.9228 3.90432   3
   2  -7 -12 12.6292 2.04141   2
   2  -7 -12 0.05172 30.4175   1
   2  -7 -12 13.3335 18.4631   1
  -2   7  12 14.1454 2.30773   3
   1  -7 -12 22.9027 17.0554   1
   1  -7 -12 12.2384 16.1290   1
   0  -7 -12 10.1234 1.63529   2
   0  -7 -12 10.1485 12.2981   1
   0   7  12 8.33142 1.67057   3
  -1  -7 -12 10.8655 9.53502   1
  -1  -7 -12 4.23089 11.3367   1
  -1  -7 -12 0.98064 1.11623   2
   1   7  12 3.64505 1.51336   3
  -2  -7 -12 -2.0946 9.27207   1
  -2  -7 -12 -7.0017 8.01780   1
  -2  -7 -12 -1.0014 0.84782   2
   2   7  12 -0.4550 1.00887   3
  -3  -7 -12 6.13238 7.15193   1
  -3  -7 -12 -4.0796 7.92800   1
  -3  -7 -12 -0.4107 1.01216   2
   3   7  12 0.87917 0.99245   3
  -4  -7 -12 67.7578 9.02451   1
  -4  -7 -12 69.7595 3.66588   2
  -4  -7 -12 75.0904 8.93306   1
   4   7  12 66.4394 2.93298   3
   4   7  12 35.6436 11.5720   1
  -5  -7 -12 1.44495 3.94655   1
   5   7  12 1.24729 0.75198   3
   5   7  12 -3.1731 8.98275   1
   6   7  12 205.233 19.2486   1
   7   7  12 9.20095 10.3595   1
   8   7  12 -14.296 13.2858   1
   9   7  12 -0.7825 1.33127   2
  10   7  12 17.4431 2.46506   2
  11   7  12 2.65491 1.70991   2
   3  -8 -12 4.73654 1.85074   2
  -3   8  12 1.52005 2.10932   3
   2  -8 -12 -0.2045 1.41255   2
   2  -8 -12 -20.722 27.1789   1
  -2   8  12 1.45025 1.76405   3
   1  -8 -12 16.8398 2.16724   2
  -1   8  12 19.0406 2.72837   3
   0  -8 -12 78.5963 18.9942   1
   0  -8 -12 60.0214 16.5377   1
   0  -8 -12 70.3796 4.07831   2
   0   8  12 80.0443 4.45357   3
  -1  -8 -12 2.27561 1.27859   2
  -1  -8 -12 -1.6768 13.0009   1
   1   8  12 7.26855 1.76818   3
  -2  -8 -12 1.19410 1.24278   2
  -2  -8 -12 -6.5263 8.76265   1
  -2  -8 -12 -19.699 10.2714   1
  -3  -8 -12 -9.7348 7.01935   1
  -3  -8 -12 -0.0726 0.95803   2
  -3  -8 -12 -0.7629 8.05919   1
   3   8  12 -0.1838 1.07259   3
  -4  -8 -12 13.5115 6.54752   1
  -4  -8 -12 8.40159 5.03418   1
  -4  -8 -12 13.7017 1.71532   2
   4   8  12 16.7341 1.91881   3
   5   8  12 17.5137 1.67113   3
   5   8  12 17.5191 10.8020   1
   6   8  12 17.6147 10.3114   1
   6   8  12 13.5177 1.36723   3
   8   8  12 23.7888 11.7985   1
   9   8  12 0.16563 1.48844   2
  10   8  12 0.60683 1.67239   2
  11   8  12 17.6367 3.54531   2
   2  -9 -12 7.25259 2.04175   2
  -2   9  12 14.0609 2.82719   3
   1  -9 -12 5.58621 1.76918   2
   1  -9 -12 16.4097 26.5682   1
  -1   9  12 9.98071 2.27933   3
   0  -9 -12 38.2761 3.17984   2
   0  -9 -12 25.0547 20.3527   1
   0   9  12 39.3037 3.61311   3
  -1  -9 -12 6.00976 15.4418   1
  -1  -9 -12 19.4487 2.41863   2
   1   9  12 23.6106 2.79184   3
  -2  -9 -12 10.7359 10.7217   1
  -2  -9 -12 24.8193 12.7690   1
  -2  -9 -12 28.6752 2.82111   2
   2   9  12 27.0700 2.74089   3
  -3  -9 -12 -2.3782 7.26068   1
  -3  -9 -12 8.69368 7.83003   1
  -3  -9 -12 2.87391 1.39550   2
   3   9  12 3.58070 1.45893   3
  -4  -9 -12 14.5737 2.16517   2
   4   9  12 14.1227 1.93335   3
   5   9  12 29.7606 2.26984   3
   6   9  12 1.99379 0.98499   3
   7   9  12 14.1984 1.42260   3
   7   9  12 15.0874 11.2772   1
   9   9  12 -0.4535 1.50826   2
  10   9  12 5.37561 1.99076   2
  11   9  12 0.77370 1.83405   2
   1 -10 -12 0.92864 1.64329   2
  -1  10  12 2.86738 2.29666   3
   0 -10 -12 16.7690 2.38856   2
   0  10  12 16.8390 2.83130   3
  -1 -10 -12 26.6690 19.0131   1
  -1 -10 -12 39.2698 3.28061   2
   1  10  12 38.2552 3.68313   3
  -2 -10 -12 11.5797 13.0709   1
  -3 -10 -12 8.97108 1.67891   2
   3  10  12 7.99212 1.99617   3
  -4 -10 -12 13.2821 2.03280   2
   4  10  12 10.7953 1.90995   3
   5  10  12 1.70892 1.48018   3
   6  10  12 70.8478 3.41919   3
   7  10  12 1.51361 1.01371   3
   8  10  12 62.6219 2.80041   3
   9  10  12 4.51387 1.95612   2
  10  10  12 12.1153 2.42302   2
  -1 -11 -12 8.72710 1.86627   2
   1  11  12 13.2288 2.84042   3
  -2 -11 -12 -0.3840 1.37870   2
   2  11  12 2.63666 1.82106   3
  -3 -11 -12 19.3923 2.47454   2
   3  11  12 8.40602 2.09475   3
  -4 -11 -12 -1.1181 1.15503   2
   4  11  12 0.44304 1.34891   3
   5  11  12 2.28530 1.51003   3
   6  11  12 13.4423 1.96848   3
   7  11  12 15.2478 2.03940   3
   8  11  12 8.27831 1.47934   3
   9  11  12 -3.6747 1.42632   2
  -3 -12 -12 8.04334 1.87085   2
   3  12  12 11.0512 2.72256   3
   4  12  12 11.2280 2.47885   3
   5  12  12 17.1359 2.79984   3
   6  12  12 55.9496 3.72315   3
   7  12  12 46.9688 3.28151   3
   8  12  12 0.71542 1.22969   3
  -4 -11  13 43.5168 29.4224   1
   5  10 -13 32.6400 30.2484   1
   4  10 -13 17.7996 27.7335   1
  -4 -10  13 68.9991 21.5463   1
   3  10 -13 -61.357 26.8997   1
  -3 -10  13 35.0352 22.1143   1
   2  10 -13 -19.118 25.7188   1
  -2 -10  13 37.9835 24.3057   1
   1  10 -13 -10.289 30.4314   1
  -1 -10  13 -37.542 25.1234   1
   0  10 -13 39.4727 43.1072   1
   6   9 -13 -7.0651 26.8082   1
   5   9 -13 -7.5606 23.7556   1
   4   9 -13 19.6815 20.0990   1
  -4  -9  13 30.6677 17.4291   1
   3   9 -13 94.2635 25.5572   1
  -3  -9  13 99.8849 21.0137   1
   2   9 -13 -28.054 22.1825   1
  -1  -9  13 50.6044 21.1886   1
   0   9 -13 10.0791 23.8851   1
   0  -9  13 0.56375 22.8062   1
  -1   9 -13 163.543 38.2784   1
   1  -9  13 208.486 55.2682   1
  -2   9 -13 47.6236 38.1873   1
   2  -9  13 40.7939 29.9826   1
   8   8 -13 29.8485 2.39555   2
   7   8 -13 20.6815 1.91755   2
   7   8 -13 41.5593 28.9455   1
   6   8 -13 27.5923 20.7482   1
   5   8 -13 -7.8466 20.1928   1
   4   8 -13 7.35925 18.8772   1
   3   8 -13 21.8364 19.1407   1
  -3  -8  13 32.4543 16.2097   1
   2   8 -13 9.68494 18.6718   1
  -2  -8  13 15.4785 15.8803   1
   1   8 -13 28.7630 19.4735   1
  -1  -8  13 -37.775 14.9933   1
   0   8 -13 2.88395 21.5876   1
   0  -8  13 -20.852 17.8982   1
  -1   8 -13 26.5363 24.4547   1
   1  -8  13 19.2216 20.2340   1
  -2   8 -13 21.9348 24.7888   1
   2  -8  13 -16.236 26.0996   1
  -3   8 -13 9.97892 30.2545   1
   3  -8  13 22.6253 30.3061   1
  -4   8 -13 40.7806 42.3557   1
   8   7 -13 -2.3894 1.09258   2
  -8  -7  13 -1.7773 1.83426   3
   7   7 -13 40.8025 26.4328   1
   6   7 -13 22.2696 23.1841   1
   6   7 -13 25.2912 1.92156   2
   5   7 -13 28.6348 1.62119   2
   5   7 -13 38.4060 19.6954   1
   4   7 -13 7.85134 16.0638   1
  -4  -7  13 -6.6299 13.6059   1
   3   7 -13 45.4726 17.2404   1
  -3  -7  13 62.8636 15.8142   1
   1   7 -13 21.5207 17.6225   1
  -1  -7  13 15.6971 12.8783   1
   0   7 -13 48.0509 18.6789   1
   0  -7  13 25.4141 16.1008   1
  -1   7 -13 21.0493 19.3352   1
   1  -7  13 -6.3358 14.7722   1
  -2   7 -13 -4.3635 19.4479   1
   2  -7  13 9.94744 19.7602   1
  -3   7 -13 154.993 31.6359   1
   3  -7  13 143.387 26.6031   1
  -4   7 -13 9.21231 27.3180   1
   4  -7  13 -7.9544 27.5789   1
  -5   7 -13 15.8309 2.16488   3
  -5   7 -13 49.2576 40.4850   1
   5  -7  13 -11.491 37.1907   1
   9   6 -13 31.2178 3.01922   2
  -9  -6  13 35.8991 4.80080   3
   8   6 -13 -1.4299 1.52340   2
  -8  -6  13 3.38310 2.38469   3
   7   6 -13 12.3413 22.6848   1
   7   6 -13 9.37849 1.50753   2
  -7  -6  13 11.9224 2.40023   3
   6   6 -13 -12.947 18.9567   1
   5   6 -13 13.6464 1.35369   2
   5   6 -13 27.4883 16.8052   1
  -5  -6  13 9.82568 1.20163   2
   4   6 -13 9.56714 18.0156   1
  -4  -6  13 7.75654 11.6139   1
   2   6 -13 73.7246 19.5737   1
  -2  -6  13 71.6709 16.0552   1
   1   6 -13 9.03036 11.9920   1
  -1  -6  13 -7.1784 10.9384   1
   0   6 -13 15.6222 15.0320   1
   0  -6  13 -5.9517 11.7433   1
  -1   6 -13 13.9082 16.4716   1
   1  -6  13 17.5607 14.0090   1
  -2   6 -13 15.3138 16.1693   1
   2  -6  13 13.8916 17.2581   1
  -3   6 -13 -2.3018 20.2441   1
   3  -6  13 5.83636 19.6068   1
  -4   6 -13 36.8552 25.7006   1
   4  -6  13 17.7998 22.0304   1
  -5   6 -13 54.2569 3.10721   3
  -5   6 -13 5.02824 27.9745   1
   5  -6  13 42.3526 2.27089   2
   5  -6  13 57.9190 3.13548   2
   5  -6  13 26.6731 28.8574   1
  -6   6 -13 17.1423 2.12778   3
  -6   6 -13 26.7857 46.5458   1
   6  -6  13 14.7950 1.47777   2
   6  -6  13 50.4971 41.2956   1
   9   5 -13 22.7572 2.41002   2
   8   5 -13 19.4538 2.11565   2
   8   5 -13 13.0140 31.7676   1
  -8  -5  13 20.1893 3.32573   3
   7   5 -13 7.69384 1.55383   2
   7   5 -13 -15.941 27.1634   1
   7   5 -13 22.8082 22.3836   1
  -7  -5  13 9.62178 2.27667   3
   6   5 -13 2.96992 1.19237   2
  -6  -5  13 3.16400 1.80216   3
  -6  -5  13 2.85384 1.12102   2
   5   5 -13 77.8109 3.33375   2
  -5  -5  13 72.8049 3.16090   2
  -5  -5  13 73.3784 4.37904   3
  -4  -5  13 60.3048 2.56146   2
  -4  -5  13 60.8151 3.77652   3
  -4  -5  13 50.3237 14.1777   1
   3   5 -13 74.7447 20.4828   1
   3   5 -13 78.3831 2.87205   2
  -3  -5  13 79.3575 2.80943   2
  -3  -5  13 51.6345 13.6371   1
   2   5 -13 1.23051 0.59168   2
   2   5 -13 -4.7995 10.8606   1
  -2  -5  13 -4.0838 10.0042   1
  -2  -5  13 0.14715 0.47096   2
   1   5 -13 18.0259 13.1244   1
  -1  -5  13 -4.7992 11.4766   1
   0   5 -13 -8.2234 11.0190   1
  -1   5 -13 7.47754 13.7197   1
   1  -5  13 14.2564 12.4451   1
  -2   5 -13 4.93821 13.6426   1
   2  -5  13 4.22258 12.7659   1
  -3   5 -13 53.8112 17.8234   1
   3  -5  13 84.7760 21.5274   1
   3  -5  13 63.4232 2.30104   2
   3  -5  13 61.5018 2.26004   2
  -4   5 -13 20.6159 21.3157   1
   4  -5  13 24.2950 1.56829   2
   4  -5  13 28.1057 19.6617   1
  -5   5 -13 -32.197 21.1684   1
  -5   5 -13 -0.3103 0.95854   3
   5  -5  13 13.4635 23.0240   1
   5  -5  13 1.02646 0.82243   2
   5  -5  13 0.47396 0.78942   2
  -6   5 -13 34.7292 31.2424   1
  -6   5 -13 15.3333 1.82509   3
   6  -5  13 8.10878 1.60151   2
   6  -5  13 14.0106 1.50206   2
   6  -5  13 -12.220 31.4909   1
  -7   5 -13 -17.335 41.9080   1
   7  -5  13 -29.249 38.9032   1
   7  -5  13 4.00577 1.10305   2
   9   4 -13 -2.6374 1.54976   2
  -9  -4  13 -1.8059 1.68469   3
   8   4 -13 1.74304 1.26031   2
   8   4 -13 -33.288 27.6443   1
  -8  -4  13 1.12014 2.23700   3
   7   4 -13 -12.055 25.4297   1
   7   4 -13 7.39900 1.58043   2
   7   4 -13 -27.974 21.3519   1
  -7  -4  13 7.57546 2.27355   3
   6   4 -13 3.42870 1.33703   2
   6   4 -13 4.86955 19.3973   1
   6   4 -13 15.1483 18.8418   1
  -6  -4  13 1.80638 1.86958   3
   5   4 -13 6.15821 16.4486   1
   5   4 -13 5.48888 1.31080   2
  -5  -4  13 3.58185 1.87316   3
  -5  -4  13 3.93447 1.09792   2
   4   4 -13 15.0228 1.52852   2
   4   4 -13 2.70617 12.4926   1
  -4  -4  13 14.8890 1.44713   2
  -4  -4  13 15.4494 2.32300   3
  -4  -4  13 7.76044 11.8824   1
   3   4 -13 63.4219 2.71400   2
   3   4 -13 61.8213 14.7973   1
  -3  -4  13 57.8076 3.46430   3
  -3  -4  13 59.3999 2.51896   2
  -3  -4  13 67.0792 14.9436   1
   2   4 -13 259.769 25.6498   1
   2   4 -13 241.639 6.99361   2
  -2  -4  13 243.245 24.6250   1
  -2  -4  13 235.463 6.94638   2
   1   4 -13 6.84196 10.8019   1
   1   4 -13 24.6746 1.49986   2
  -1  -4  13 24.9158 1.39877   2
   0   4 -13 -1.2232 11.7003   1
   0  -4  13 5.51568 10.7083   1
  -1   4 -13 29.9927 13.4977   1
   1  -4  13 15.5705 12.7143   1
   1  -4  13 25.9286 1.39732   2
   1  -4  13 26.5127 1.34656   2
  -2   4 -13 -26.245 12.0663   1
   2  -4  13 3.17006 0.72948   2
   2  -4  13 -2.5199 11.2361   1
  -3   4 -13 23.9761 13.9521   1
   3  -4  13 31.8360 1.64995   2
   3  -4  13 30.5656 1.73751   2
   3  -4  13 17.9558 14.1248   1
  -4   4 -13 -18.444 13.9343   1
   4  -4  13 -3.9173 15.0648   1
  -5   4 -13 16.1709 1.60663   3
  -5   4 -13 30.9735 18.9606   1
   5  -4  13 18.4753 1.65503   2
   5  -4  13 5.51898 20.0248   1
   5  -4  13 18.3790 1.74503   2
  -6   4 -13 33.6642 25.0166   1
  -6   4 -13 25.1577 1.89650   3
   6  -4  13 4.47613 23.1275   1
   6  -4  13 20.4831 2.01328   2
   6  -4  13 30.3814 2.17659   2
  -7   4 -13 -15.653 46.4569   1
   7  -4  13 -12.188 30.1426   1
   8  -4  13 29.3589 49.3719   1
   9   3 -13 5.49005 1.92124   2
  -9  -3  13 -2.7534 2.19879   3
   8   3 -13 31.1128 2.89044   2
   8   3 -13 38.1351 33.3800   1
  -8  -3  13 39.1039 4.02448   3
   7   3 -13 12.4296 22.7339   1
   7   3 -13 42.2337 30.3739   1
  -7  -3  13 4.78902 1.74467   3
   6   3 -13 110.663 25.6680   1
   6   3 -13 106.570 25.6899   1
   6   3 -13 103.926 4.59639   2
  -6  -3  13 104.471 5.44496   3
   5   3 -13 3.93086 1.27719   2
   5   3 -13 16.9168 14.5729   1
  -5  -3  13 2.46833 1.05230   2
  -5  -3  13 1.71415 2.12802   3
   4   3 -13 83.8984 3.53933   2
   4   3 -13 59.9219 16.4991   1
  -4  -3  13 78.1402 4.14155   3
  -4  -3  13 75.9901 19.0123   1
  -4  -3  13 74.3097 3.27141   2
   3   3 -13 3.24677 1.01286   2
   3   3 -13 5.75179 11.6757   1
  -3  -3  13 0.52569 1.31316   3
  -3  -3  13 1.49695 0.79236   2
  -3  -3  13 10.7580 12.9538   1
   2   3 -13 6.92559 10.0071   1
   2   3 -13 5.17918 1.03635   2
  -2  -3  13 17.4222 11.2725   1
  -2  -3  13 8.29926 1.03437   2
  -2  -3  13 9.39680 1.58550   3
   1   3 -13 44.7987 2.18615   2
   1   3 -13 42.7332 12.2598   1
  -1  -3  13 50.7472 3.04281   2
  -1  -3  13 28.8997 12.1020   1
   0   3 -13 227.207 6.60363   2
   0   3 -13 233.960 22.1150   1
   0  -3  13 191.832 20.6302   1
   0  -3  13 229.896 6.56350   2
  -1   3 -13 -3.3461 10.1047   1
   1  -3  13 -0.8166 0.53169   2
   1  -3  13 0.52161 10.3994   1
  -2   3 -13 56.5653 13.7298   1
   2  -3  13 109.568 17.3670   1
   2  -3  13 106.351 3.45733   2
  -3   3 -13 11.7119 11.3727   1
   3  -3  13 23.1503 12.9832   1
   3  -3  13 22.0748 1.52001   2
  -4   3 -13 20.0846 13.6341   1
   4  -3  13 20.1551 1.68844   2
   4  -3  13 14.9556 1.40043   2
   4  -3  13 2.85762 13.7050   1
  -5   3 -13 9.32724 1.19286   3
  -5   3 -13 -9.6633 15.0911   1
   5  -3  13 9.00400 1.36457   2
   5  -3  13 6.19517 15.1702   1
   5  -3  13 10.3566 1.24337   2
  -6   3 -13 -12.493 18.5308   1
   6  -3  13 -34.778 20.6682   1
   6  -3  13 3.84256 1.10002   2
   6  -3  13 3.31775 1.10486   2
  -7   3 -13 28.7016 24.0235   1
   7  -3  13 -1.6279 27.9130   1
   7  -3  13 5.73123 1.37569   2
   8  -3  13 54.0032 59.0957   1
   9  -3  13 27.2761 2.59596   2
   8   2 -13 2.22071 1.71969   2
   8   2 -13 18.5659 59.8427   1
   8   2 -13 6.67995 37.2607   1
   7   2 -13 -28.465 24.8574   1
   7   2 -13 15.8484 23.2043   1
   6   2 -13 -8.0557 22.2205   1
   6   2 -13 -0.9509 1.21751   2
   6   2 -13 -30.318 17.4244   1
  -6  -2  13 0.63810 1.52044   3
   5   2 -13 28.7634 2.55074   2
   5   2 -13 22.8881 16.4754   1
   5   2 -13 45.8878 18.4906   1
  -5  -2  13 38.7127 3.95928   3
   4   2 -13 -0.9251 11.9892   1
   4   2 -13 10.7003 1.60880   2
  -4  -2  13 9.59317 1.84337   3
   3   2 -13 117.395 18.2978   1
   3   2 -13 95.4501 3.83335   2
  -3  -2  13 93.0464 3.67507   2
  -3  -2  13 91.1649 15.4732   1
  -3  -2  13 94.7889 4.35621   3
   2   2 -13 -3.6170 9.51840   1
   2   2 -13 5.35955 1.12749   2
  -2  -2  13 3.80514 0.94434   2
  -2  -2  13 -6.7710 8.75752   1
  -2  -2  13 4.93257 1.32727   3
   1   2 -13 100.871 16.4137   1
   1   2 -13 97.0815 3.68819   2
  -1  -2  13 103.432 4.07113   3
  -1  -2  13 96.0969 15.1080   1
  -1  -2  13 96.6183 3.55915   2
   0   2 -13 175.040 19.8360   1
   0  -2  13 191.876 5.79843   2
   0  -2  13 186.029 19.6904   1
  -1   2 -13 12.7179 9.75354   1
   1  -2  13 0.36823 0.64611   2
   1  -2  13 -3.7706 9.59905   1
  -2   2 -13 49.6570 12.5091   1
   2  -2  13 57.6234 2.43588   2
   2  -2  13 57.0846 13.7373   1
  -3   2 -13 44.4190 12.3347   1
   3  -2  13 64.7289 14.1631   1
   3  -2  13 61.2321 2.57019   2
  -4   2 -13 5.78415 11.3009   1
   4  -2  13 40.0357 14.0219   1
   4  -2  13 16.1510 1.58981   2
   4  -2  13 17.7560 1.58765   2
  -5   2 -13 15.6391 13.5637   1
   5  -2  13 2.68588 1.04225   2
   5  -2  13 5.04055 1.03107   2
   5  -2  13 -23.143 14.2617   1
  -6   2 -13 -5.0863 16.9259   1
   6  -2  13 6.33399 16.8296   1
   6  -2  13 4.32877 1.15423   2
   6  -2  13 4.55468 1.18918   2
  -7   2 -13 9.13309 20.2187   1
   7  -2  13 12.6535 20.5565   1
   7  -2  13 17.7851 1.85948   2
  -8   2 -13 58.9701 28.9605   1
   8  -2  13 18.2928 29.6428   1
   9  -2  13 1.53886 1.36205   2
   8   1 -13 26.6515 2.93918   2
   8   1 -13 28.7880 39.3101   1
   8   1 -13 84.4305 47.3330   1
  -8  -1  13 28.5269 4.23290   3
   7   1 -13 -0.8144 27.0149   1
   7   1 -13 -0.3983 1.33019   2
  -7  -1  13 -0.4546 1.62329   3
   6   1 -13 8.03513 19.1560   1
   6   1 -13 19.3666 21.6752   1
   6   1 -13 4.54844 1.85966   2
  -6  -1  13 2.82786 1.67865   3
   5   1 -13 26.2251 17.0497   1
   5   1 -13 -16.263 18.1720   1
  -5  -1  13 -1.2385 1.32931   3
   4   1 -13 28.7439 15.7191   1
   4   1 -13 33.1735 2.56134   2
   4   1 -13 28.7325 14.5575   1
  -4  -1  13 33.4414 2.35796   2
  -4  -1  13 37.5039 2.96968   3
   3   1 -13 0.49747 1.03594   2
   3   1 -13 -4.5928 11.6807   1
  -3  -1  13 -2.4295 10.4429   1
  -3  -1  13 0.06264 0.82988   2
  -3  -1  13 -0.7890 1.22430   3
   2   1 -13 30.4575 10.7203   1
   2   1 -13 31.0077 2.19869   2
  -2  -1  13 10.8071 10.5393   1
  -2  -1  13 30.2458 2.34646   3
  -2  -1  13 30.6168 2.03629   2
   1   1 -13 166.926 18.2951   1
   1   1 -13 157.612 5.36591   2
  -1  -1  13 159.648 5.27100   2
  -1  -1  13 183.082 19.3275   1
  -1  -1  13 162.555 5.63591   3
   0   1 -13 171.580 18.2161   1
   0   1 -13 140.480 5.25758   2
   0  -1  13 129.885 16.8947   1
   0  -1  13 144.531 4.77822   2
   0  -1  13 142.158 4.92131   3
  -1   1 -13 319.811 9.70759   2
  -1   1 -13 326.876 23.8216   1
   1  -1  13 334.666 24.1896   1
   1  -1  13 314.226 9.20033   2
  -2   1 -13 235.244 20.7888   1
   2  -1  13 258.139 7.50776   2
   2  -1  13 244.197 21.6153   1
  -3   1 -13 297.580 24.8453   1
   3  -1  13 333.892 26.8597   1
   3  -1  13 336.444 9.53768   2
  -4   1 -13 26.8558 12.2652   1
   4  -1  13 27.9085 2.08564   2
   4  -1  13 21.0699 13.0018   1
   4  -1  13 21.1213 1.82600   2
  -5   1 -13 3.83115 11.0614   1
   5  -1  13 -1.0242 14.2881   1
   5  -1  13 13.1769 1.49561   2
   5  -1  13 9.00995 1.42333   2
  -6   1 -13 -6.6956 14.7128   1
   6  -1  13 5.48662 14.2264   1
   6  -1  13 4.38790 1.26032   2
   6  -1  13 7.37863 1.36447   2
  -7   1 -13 11.6655 16.6674   1
   7  -1  13 7.91221 18.5545   1
  -8   1 -13 20.2625 24.4131   1
   8  -1  13 6.68793 1.64418   2
   8  -1  13 11.2537 23.3265   1
   9  -1  13 62.4604 56.9256   1
  10  -1  13 3.68259 1.55748   2
   8   0 -13 11.3009 3.21217   2
   8   0 -13 59.0946 40.6006   1
   8   0 -13 7.78609 51.7177   1
  -8   0  13 16.5220 3.26046   3
   7   0 -13 7.16168 1.85607   2
   7   0 -13 12.7461 34.5482   1
   7   0 -13 33.6663 31.1193   1
  -7   0  13 3.87977 2.01981   3
   6   0 -13 8.12466 1.78380   2
   6   0 -13 43.0090 21.2971   1
   6   0 -13 7.17644 22.8186   1
  -6   0  13 8.91922 2.12539   3
   5   0 -13 2.77279 1.29435   2
   5   0 -13 4.12346 16.1643   1
  -5   0  13 0.91075 1.60851   3
   4   0 -13 59.0685 18.1929   1
   4   0 -13 39.9307 2.87756   2
   4   0 -13 36.0919 14.9337   1
  -4   0  13 44.0550 3.22540   3
   3   0 -13 2.04771 10.8852   1
   3   0 -13 1.09389 1.03108   2
  -3   0  13 1.29830 0.92816   2
  -3   0  13 4.83780 1.64420   3
   2   0 -13 38.4086 12.3165   1
   2   0 -13 40.7025 2.58733   2
  -2   0  13 35.5799 2.26570   2
  -2   0  13 44.3429 13.4049   1
  -2   0  13 40.5959 2.65527   3
   1   0 -13 145.611 5.14575   2
   1   0 -13 134.312 17.4913   1
  -1   0  13 154.234 5.34244   3
  -1   0  13 142.065 18.2774   1
  -1   0  13 146.756 5.02993   2
   0   0 -13 4.66217 1.06007   2
   0   0 -13 1.91495 8.92943   1
   0   0  13 13.2729 9.32300   1
   0   0  13 5.63923 1.05511   2
   0   0  13 5.59259 1.17325   3
  -1   0 -13 137.510 4.73394   2
  -1   0 -13 121.676 16.1441   1
   1   0  13 136.247 4.62660   2
   1   0  13 130.270 4.41592   3
   1   0  13 153.934 17.1493   1
  -2   0 -13 552.249 15.1077   2
  -2   0 -13 554.885 30.1289   1
   2   0  13 533.124 15.0058   2
   2   0  13 532.339 31.1231   1
  -3   0 -13 96.7806 14.1118   1
   3   0  13 73.3044 14.0858   1
   3   0  13 100.112 3.71743   2
  -4   0 -13 359.995 26.8963   1
   4   0  13 359.348 27.1727   1
   4   0  13 376.184 10.7839   2
  -5   0 -13 -5.2172 9.38069   1
   5   0  13 9.71954 1.46711   2
   5   0  13 19.9202 20.5846   1
   5   0  13 10.1724 1.41188   2
  -6   0 -13 -5.5251 12.5988   1
   6   0  13 -5.3507 13.6261   1
   6   0  13 -1.9139 0.90805   2
   6   0  13 -1.0582 0.85344   2
  -7   0 -13 -5.7190 13.8211   1
   7   0  13 24.4793 16.7568   1
   7   0  13 14.7373 1.86634   2
  -8   0 -13 0.63750 33.0197   1
   8   0  13 -26.498 21.9985   1
   8   0  13 -1.3776 0.98674   2
   9   0  13 22.7190 26.8882   1
  10   0  13 -2.2337 1.31031   2
   7  -1 -13 -11.344 31.3022   1
   7  -1 -13 0.67399 1.74736   2
   7  -1 -13 5.37565 35.6427   1
  -7   1  13 9.72067 2.41826   3
   6  -1 -13 16.3733 23.2640   1
   6  -1 -13 -6.1780 29.1075   1
   5  -1 -13 19.1040 19.2195   1
   5  -1 -13 18.4152 2.21457   2
   5  -1 -13 25.8761 18.4180   1
  -5   1  13 17.2905 2.55235   3
   4  -1 -13 6.81958 15.5603   1
   4  -1 -13 7.70139 16.0839   1
   4  -1 -13 7.89040 1.60218   2
  -4   1  13 3.92420 1.52264   3
   3  -1 -13 -4.2569 12.3829   1
   3  -1 -13 -0.1269 11.9350   1
  -3   1  13 9.77074 2.84525   3
   2  -1 -13 3.77071 1.29640   2
   2  -1 -13 -2.8883 9.67408   1
  -2   1  13 -6.5571 9.83300   1
  -2   1  13 0.76835 0.98111   2
  -2   1  13 2.29958 1.20611   3
   1  -1 -13 30.1268 2.29708   2
   1  -1 -13 4.55666 8.26021   1
  -1   1  13 24.2371 1.97151   2
  -1   1  13 27.6755 2.12412   3
  -1   1  13 16.9411 10.5462   1
   0  -1 -13 94.5277 14.3932   1
   0  -1 -13 97.8043 3.92698   2
   0   1  13 96.2305 3.76724   3
   0   1  13 98.8706 3.82917   2
   0   1  13 100.093 15.6863   1
  -1  -1 -13 487.732 28.0590   1
  -1  -1 -13 498.502 13.7491   2
   1   1  13 474.703 28.8784   1
   1   1  13 482.803 13.6474   2
   1   1  13 474.002 13.3523   3
  -2  -1 -13 80.3953 3.41839   2
  -2  -1 -13 81.8909 12.6635   1
   2   1  13 75.1833 2.72604   3
   2   1  13 83.1334 3.34318   2
   2   1  13 101.542 14.6422   1
  -3  -1 -13 132.033 15.5262   1
   3   1  13 109.392 4.15258   2
   3   1  13 139.408 17.7254   1
  -4  -1 -13 124.048 17.2210   1
   4   1  13 109.975 16.2369   1
   4   1  13 105.701 4.08598   2
  -5  -1 -13 120.517 16.9291   1
   5   1  13 85.7189 3.66920   2
   5   1  13 87.6073 16.2785   1
  -6  -1 -13 18.3872 10.8166   1
   6   1  13 16.0916 1.75049   2
   6   1  13 19.1613 2.01025   2
   6   1  13 28.2873 13.2920   1
  -7  -1 -13 -3.4256 13.5075   1
   7   1  13 8.63146 14.2617   1
  -8  -1 -13 9.84906 25.8958   1
   8   1  13 8.10260 17.8369   1
   9   1  13 13.6077 23.4827   1
  10   1  13 5.75415 1.71583   2
   7  -2 -13 4.25595 40.1905   1
   7  -2 -13 22.4182 36.6361   1
   6  -2 -13 0.78353 29.0619   1
   6  -2 -13 45.0838 26.6761   1
   6  -2 -13 10.0386 2.03182   2
  -6   2  13 7.46152 2.38825   3
   5  -2 -13 10.6592 22.0820   1
   5  -2 -13 1.02791 1.43206   2
   5  -2 -13 -4.7624 19.5932   1
  -5   2  13 3.08203 1.73713   3
   4  -2 -13 11.0421 16.1955   1
   4  -2 -13 16.8084 15.1402   1
   3  -2 -13 6.35188 1.53815   2
   3  -2 -13 -7.9236 14.0609   1
   3  -2 -13 17.7363 14.1884   1
  -3   2  13 1.35798 1.25197   3
   2  -2 -13 110.643 18.1185   1
   2  -2 -13 133.225 19.0454   1
   2  -2 -13 117.694 4.90936   2
  -2   2  13 125.016 5.09057   3
  -2   2  13 125.851 5.31194   2
   1  -2 -13 335.325 26.5080   1
   1  -2 -13 345.458 10.2897   2
  -1   2  13 344.548 10.3565   3
  -1   2  13 321.411 27.5605   1
  -1   2  13 325.838 10.3451   2
   0  -2 -13 0.70002 7.64419   1
   0  -2 -13 0.17381 0.90709   2
   0   2  13 0.34803 0.98069   3
   0   2  13 10.4159 9.08716   1
   0   2  13 2.02654 0.95302   2
  -1  -2 -13 10.3405 8.26845   1
  -1  -2 -13 8.31135 1.34019   2
   1   2  13 9.52890 1.22057   3
   1   2  13 18.0085 9.96521   1
   1   2  13 8.22757 1.30020   2
  -2  -2 -13 291.321 8.77235   2
  -2  -2 -13 270.304 20.5651   1
   2   2  13 281.746 8.05074   3
   2   2  13 294.120 22.0670   1
   2   2  13 286.912 8.68378   2
  -3  -2 -13 32.6860 8.76912   1
  -3  -2 -13 28.7923 2.24642   2
   3   2  13 16.5549 8.98104   1
   3   2  13 26.4072 2.02017   2
  -4  -2 -13 69.8322 13.6919   1
   4   2  13 62.0456 3.02230   2
   4   2  13 70.9754 15.9261   1
  -5  -2 -13 75.7697 13.4318   1
   5   2  13 113.559 16.9430   1
  -6  -2 -13 64.6122 12.8812   1
   6   2  13 60.5572 3.14030   2
   6   2  13 46.5581 14.5230   1
  -7  -2 -13 0.59102 12.2637   1
   7   2  13 11.7584 14.8240   1
  -8  -2 -13 33.7251 16.0562   1
   8   2  13 22.7262 2.32719   2
   8   2  13 20.1228 16.3526   1
  -9  -2 -13 -17.260 22.0121   1
   9   2  13 -18.363 21.4887   1
  10   2  13 35.2620 3.44072   2
  11   2  13 -1.5613 1.87763   2
   6  -3 -13 -11.659 30.6218   1
   6  -3 -13 -24.582 34.5150   1
   5  -3 -13 16.5633 2.10132   2
   5  -3 -13 37.1372 23.9024   1
   5  -3 -13 34.5425 28.4545   1
  -5   3  13 18.8711 2.89969   3
   4  -3 -13 12.4577 20.8225   1
   4  -3 -13 36.9777 18.7000   1
   4  -3 -13 9.41159 1.52191   2
  -4   3  13 11.4251 2.42607   3
   3  -3 -13 21.0394 15.5868   1
   3  -3 -13 45.5831 16.2902   1
   3  -3 -13 53.0808 3.37638   2
  -3   3  13 58.5426 3.57917   3
   2  -3 -13 7.42638 12.0211   1
   2  -3 -13 13.7782 1.94236   2
   2  -3 -13 8.82946 12.8647   1
  -2   3  13 14.0829 2.42193   3
   1  -3 -13 17.4566 1.92154   2
   1  -3 -13 5.75219 11.2416   1
   1  -3 -13 18.2193 10.7233   1
  -1   3  13 18.2928 1.92533   3
  -1   3  13 9.86583 1.64151   2
   0  -3 -13 6.43447 1.43113   2
   0   3  13 0.78945 10.6448   1
   0   3  13 9.03409 1.50098   3
   0   3  13 4.94567 1.19944   2
  -1  -3 -13 414.351 29.6906   1
  -1  -3 -13 404.073 11.6724   2
   1   3  13 379.670 11.9880   2
   1   3  13 386.087 26.2805   1
   1   3  13 392.340 11.2774   3
  -2  -3 -13 210.411 21.0334   1
  -2  -3 -13 212.658 6.88452   2
   2   3  13 193.046 6.66238   2
   2   3  13 249.604 20.6507   1
   2   3  13 204.320 6.17188   3
  -3  -3 -13 36.6818 2.54189   2
  -3  -3 -13 54.5744 16.6763   1
   3   3  13 32.7541 2.27754   2
  -4  -3 -13 27.8639 8.99394   1
   4   3  13 27.1694 10.5335   1
  -5  -3 -13 -7.2429 8.14446   1
   5   3  13 0.11198 8.74361   1
  -6  -3 -13 9.65322 9.42332   1
   6   3  13 -7.4805 9.71385   1
  -7  -3 -13 120.279 16.8669   1
   7   3  13 89.3273 4.40028   2
   7   3  13 81.1838 17.6314   1
  -8  -3 -13 10.3922 12.9743   1
   8   3  13 0.31234 1.18909   2
   8   3  13 -14.068 13.1823   1
  -9  -3 -13 -14.256 17.3058   1
   9   3  13 3.06453 1.47039   2
   9   3  13 -3.9114 16.8035   1
  10   3  13 0.16396 1.48647   2
  11   3  13 2.64062 1.86722   2
   6  -4 -13 46.1185 64.1816   1
   5  -4 -13 -22.414 28.8461   1
   5  -4 -13 1.75072 1.45477   2
   5  -4 -13 15.9832 29.2493   1
  -5   4  13 -0.1316 1.61109   3
   4  -4 -13 69.6297 4.14558   2
   4  -4 -13 74.0614 22.9919   1
   4  -4 -13 58.8215 23.9112   1
  -4   4  13 73.2583 4.49848   3
   3  -4 -13 3.13899 17.9441   1
   3  -4 -13 9.95239 17.1543   1
   2  -4 -13 21.8978 14.3872   1
   2  -4 -13 19.6548 13.6639   1
   1  -4 -13 0.66208 1.12808   2
   1  -4 -13 16.2225 10.6541   1
   1  -4 -13 -8.2251 11.7983   1
  -1   4  13 0.28434 1.07373   3
   0  -4 -13 13.3021 10.2125   1
   0  -4 -13 7.59762 9.80179   1
  -1  -4 -13 10.4096 8.81865   1
  -1  -4 -13 7.95030 10.8933   1
  -1  -4 -13 8.55765 1.43948   2
   1   4  13 3.21455 8.94938   1
   1   4  13 13.0645 1.58655   2
   1   4  13 9.72717 1.40483   3
  -2  -4 -13 0.94547 1.08084   2
  -2  -4 -13 -20.093 6.93937   1
   2   4  13 0.57875 9.55048   1
   2   4  13 0.16807 0.96159   2
   2   4  13 -0.3934 0.71439   3
  -3  -4 -13 34.9633 2.56861   2
  -3  -4 -13 35.9085 9.51048   1
   3   4  13 39.4774 12.3797   1
   3   4  13 33.4130 1.64317   3
   3   4  13 31.5223 2.36270   2
  -4  -4 -13 499.715 27.2264   1
   4   4  13 527.822 29.9469   1
   4   4  13 525.597 14.9029   2
  -5  -4 -13 42.8199 10.6317   1
   5   4  13 30.2231 11.1114   1
   5   4  13 28.7096 2.35581   2
  -6  -4 -13 18.5245 9.63476   1
   6   4  13 22.6554 11.2539   1
  -7  -4 -13 16.4960 10.6239   1
   7   4  13 19.9891 12.7996   1
  -8  -4 -13 2.86813 12.0821   1
   8   4  13 1.06662 2.50994   2
   8   4  13 6.40847 14.8687   1
  -9  -4 -13 28.8967 15.9864   1
   9   4  13 41.5014 3.41927   2
   9   4  13 9.60049 18.4702   1
  10   4  13 3.80562 1.79469   2
  11   4  13 1.30820 1.60433   2
   5  -5 -13 -46.790 34.5967   1
   5  -5 -13 1.44120 1.50047   2
  -5   5  13 2.78229 1.98860   3
   4  -5 -13 -32.163 24.4363   1
   4  -5 -13 11.5561 2.06147   2
   4  -5 -13 9.90536 22.9500   1
  -4   5  13 14.2051 2.51464   3
   3  -5 -13 32.7802 24.4186   1
   2  -5 -13 22.3471 2.39146   2
   2  -5 -13 30.9360 17.3112   1
   2  -5 -13 36.1091 16.5883   1
  -2   5  13 25.7715 3.00001   3
   1  -5 -13 33.4545 2.82113   2
   1  -5 -13 44.7357 14.7618   1
   1  -5 -13 44.6757 15.0546   1
  -1   5  13 38.6881 2.85464   3
   0  -5 -13 5.14154 12.2940   1
   0  -5 -13 2.49668 1.19016   2
   0  -5 -13 4.51431 10.3536   1
   0   5  13 2.63349 1.29242   3
  -1  -5 -13 85.2507 13.9652   1
  -1  -5 -13 81.4982 3.79248   2
  -1  -5 -13 47.7221 12.9933   1
   1   5  13 75.9355 3.48783   3
   1   5  13 76.2740 15.0021   1
  -2  -5 -13 138.703 5.35913   2
  -2  -5 -13 133.961 15.8055   1
  -2  -5 -13 144.514 17.0221   1
   2   5  13 141.164 4.90550   3
   2   5  13 138.837 18.1805   1
  -3  -5 -13 40.9509 2.73870   2
  -3  -5 -13 33.4087 9.47232   1
  -3  -5 -13 37.4039 12.8190   1
   3   5  13 40.0086 2.02199   3
   3   5  13 39.0767 3.05947   2
   3   5  13 37.8050 11.8666   1
  -4  -5 -13 421.315 23.7874   1
  -4  -5 -13 441.867 13.0631   2
   4   5  13 451.499 28.0446   1
  -5  -5 -13 -14.971 7.19087   1
   5   5  13 -6.5274 9.21015   1
  -6  -5 -13 19.3549 9.56762   1
   6   5  13 6.63626 10.7794   1
  -7  -5 -13 33.6939 10.1939   1
   7   5  13 44.2541 14.0513   1
  -8  -5 -13 29.3727 11.7182   1
   8   5  13 45.0680 3.51830   2
  -9  -5 -13 2.41396 12.7912   1
   9   5  13 2.21075 1.42810   2
   9   5  13 27.0540 24.1426   1
  10   5  13 6.34639 1.93312   2
  11   5  13 19.7536 2.70409   2
   4  -6 -13 -0.5292 1.58474   2
   4  -6 -13 -39.552 31.2581   1
  -4   6  13 1.59730 1.80989   3
   3  -6 -13 13.8027 25.5694   1
   3  -6 -13 12.8978 2.07141   2
  -3   6  13 10.9270 2.51735   3
   2  -6 -13 -9.8645 15.9812   1
   2  -6 -13 3.75516 1.46953   2
   2  -6 -13 3.80131 19.9971   1
  -2   6  13 4.20841 1.54983   3
   1  -6 -13 17.0856 2.14438   2
   1  -6 -13 -5.9605 21.2894   1
   1  -6 -13 47.4465 16.3635   1
  -1   6  13 20.6944 2.56139   3
   0  -6 -13 19.7288 13.5011   1
   0  -6 -13 20.6757 2.18023   2
   0  -6 -13 14.5753 12.5420   1
   0   6  13 23.6001 2.72515   3
  -1  -6 -13 27.9837 14.0478   1
  -1  -6 -13 17.0230 2.11102   2
  -1  -6 -13 18.9407 10.5000   1
   1   6  13 14.8627 2.03194   3
  -2  -6 -13 72.2512 3.64969   2
  -2  -6 -13 70.6098 12.2398   1
  -2  -6 -13 46.9935 18.8711   1
   2   6  13 63.4910 3.15088   3
  -3  -6 -13 6.69992 7.88126   1
  -3  -6 -13 7.17162 9.05222   1
   3   6  13 10.3469 10.3579   1
  -4  -6 -13 -1.2801 6.86925   1
  -4  -6 -13 12.0983 8.55580   1
   4   6  13 9.68715 9.52074   1
  -5  -6 -13 8.04484 7.83907   1
  -5  -6 -13 10.8283 8.00980   1
   5   6  13 20.0204 10.5058   1
  -6  -6 -13 62.5366 9.63920   1
   6   6  13 80.0216 13.8423   1
  -7  -6 -13 -2.3401 7.20806   1
   7   6  13 -16.218 10.8013   1
  -8  -6 -13 6.04965 7.43874   1
   8   6  13 -11.740 12.7111   1
   9   6  13 10.9489 1.98974   2
  10   6  13 -1.3008 1.47720   2
  11   6  13 5.06601 2.22351   2
   4  -7 -13 0.52104 1.78774   2
  -4   7  13 2.66280 2.16904   3
   3  -7 -13 1.46050 1.58733   2
   3  -7 -13 -29.194 31.3041   1
  -3   7  13 1.38365 1.64895   3
   2  -7 -13 -24.811 37.5399   1
   2  -7 -13 1.16117 1.44010   2
  -2   7  13 0.60080 1.64405   3
   1  -7 -13 7.07804 18.5140   1
   1  -7 -13 21.8634 17.0400   1
   0  -7 -13 13.5295 19.6437   1
   0  -7 -13 3.88635 1.46349   2
   0   7  13 1.57061 1.51162   3
  -1  -7 -13 1.53316 1.44357   2
  -1  -7 -13 8.15047 11.5463   1
  -1  -7 -13 -8.8196 12.7804   1
   1   7  13 4.08957 1.54223   3
  -2  -7 -13 -12.541 10.7356   1
  -2  -7 -13 2.77598 1.44918   2
  -2  -7 -13 10.8909 9.44246   1
   2   7  13 5.83900 1.45026   3
  -3  -7 -13 75.1394 12.0721   1
  -3  -7 -13 65.6960 12.4615   1
  -3  -7 -13 82.9344 3.97846   2
   3   7  13 77.4687 3.50325   3
  -4  -7 -13 13.9707 1.97312   2
  -4  -7 -13 4.37673 8.14403   1
  -4  -7 -13 8.07790 7.53348   1
   4   7  13 6.81710 11.3120   1
   4   7  13 12.3859 1.51169   3
  -5  -7 -13 9.96204 6.45512   1
   5   7  13 13.3618 1.32027   3
   5   7  13 10.8526 10.6667   1
   6   7  13 28.0506 12.1527   1
   8   7  13 1.87495 13.1942   1
   9   7  13 21.0819 2.55207   2
  10   7  13 -0.6925 1.62583   2
  11   7  13 8.84458 3.59666   2
   3  -8 -13 0.29220 1.51009   2
  -3   8  13 -2.4085 1.62889   3
   2  -8 -13 -49.177 31.3038   1
   2  -8 -13 10.3361 2.11771   2
  -2   8  13 11.2734 2.57072   3
   1  -8 -13 10.7973 2.03998   2
  -1   8  13 9.31588 2.18222   3
   0  -8 -13 5.01629 1.50024   2
   0  -8 -13 14.4280 19.3854   1
   0   8  13 7.81692 1.87175   3
  -1  -8 -13 26.4796 13.3084   1
  -1  -8 -13 23.5639 2.41978   2
  -1  -8 -13 22.9213 14.6127   1
   1   8  13 23.3614 2.59446   3
  -2  -8 -13 20.2203 12.8792   1
  -2  -8 -13 18.6446 2.04892   2
   2   8  13 24.1550 2.50985   3
  -3  -8 -13 13.7131 9.32025   1
  -3  -8 -13 -4.2827 10.0075   1
   3   8  13 16.7459 2.01772   3
  -4  -8 -13 -5.5150 9.31347   1
  -4  -8 -13 -0.1178 7.08014   1
   4   8  13 2.00186 1.08246   3
   5   8  13 -1.2275 0.78427   3
   6   8  13 12.9123 14.7920   1
   6   8  13 14.8145 1.36655   3
   7   8  13 34.3804 13.0246   1
   9   8  13 6.70878 1.89295   2
  10   8  13 -5.2725 1.48674   2
  11   8  13 3.78207 1.99535   2
   1  -9 -13 16.7861 37.5211   1
   1  -9 -13 13.3410 2.34995   2
  -1   9  13 11.8161 2.42838   3
   0  -9 -13 5.75460 22.2810   1
   0  -9 -13 2.49572 1.45412   2
   0   9  13 1.91010 1.67088   3
  -1  -9 -13 25.3343 17.6798   1
  -2  -9 -13 56.2430 16.0639   1
  -2  -9 -13 67.3851 3.92648   2
   2   9  13 64.8483 3.93314   3
  -3  -9 -13 10.7520 10.1719   1
  -3  -9 -13 -2.2303 9.22784   1
  -3  -9 -13 2.36191 1.31313   2
   3   9  13 2.68763 1.31989   3
  -4  -9 -13 5.74967 1.70724   2
   4   9  13 7.82388 1.65583   3
   5   9  13 1.62433 1.06747   3
   6   9  13 11.7505 1.48888   3
   9   9  13 6.37617 2.09644   2
  10   9  13 -2.1302 1.55907   2
   0 -10 -13 3.68367 1.70698   2
   0  10  13 1.42337 1.96392   3
  -1 -10 -13 4.48084 21.5279   1
  -1 -10 -13 32.3073 3.35217   2
   1  10  13 30.5883 3.66544   3
  -2 -10 -13 12.1534 1.93662   2
  -2 -10 -13 18.0746 15.3711   1
   2  10  13 12.7602 2.47547   3
  -3 -10 -13 10.6490 2.05573   2
   3  10  13 9.21104 2.01851   3
  -4 -10 -13 26.7480 2.76909   2
   4  10  13 26.5269 2.69858   3
   5  10  13 22.5307 2.39358   3
   6  10  13 1.60182 1.09364   3
   7  10  13 28.5462 2.14066   3
  10  10  13 36.1964 3.76711   2
  -2 -11 -13 34.3051 3.34826   2
   2  11  13 39.2176 3.83160   3
  -3 -11 -13 2.03253 1.41183   2
   3  11  13 -0.6067 1.46394   3
  -4 -11 -13 -0.2818 1.39215   2
   4  11  13 -1.4763 1.41175   3
   5  11  13 -0.8084 1.27115   3
   6  11  13 17.3692 2.25338   3
   7  11  13 9.64269 1.92924   3
   8  11  13 6.32739 1.38489   3
   5  12  13 2.80782 1.78682   3
   6  12  13 19.2319 2.53911   3
  -4 -10  14 10.1882 25.3216   1
  -3 -10  14 -23.143 24.8627   1
  -2 -10  14 21.0345 27.9506   1
   5   9 -14 -24.694 24.1675   1
   4   9 -14 -19.832 25.1769   1
  -4  -9  14 36.7653 21.7936   1
   3   9 -14 30.8531 27.0893   1
  -3  -9  14 -20.062 19.8588   1
   2   9 -14 48.7255 32.4472   1
   1   9 -14 -17.165 25.8200   1
  -1  -9  14 7.55953 23.9782   1
   0   9 -14 34.8596 26.6140   1
   0  -9  14 -47.472 31.8364   1
  -1   9 -14 13.7703 35.1324   1
   1  -9  14 24.9656 30.2777   1
   7   8 -14 15.3367 1.45741   2
   6   8 -14 -11.884 27.0598   1
   5   8 -14 39.5125 27.1112   1
   4   8 -14 -1.1999 20.2979   1
   3   8 -14 -13.354 21.0043   1
  -3  -8  14 1.07859 17.5850   1
   2   8 -14 13.0880 21.3602   1
  -2  -8  14 24.2871 19.4740   1
   1   8 -14 42.7504 23.4891   1
   0   8 -14 -1.5659 25.0486   1
   0  -8  14 21.1899 19.2139   1
  -1   8 -14 256.927 37.0653   1
   1  -8  14 298.739 35.5386   1
  -2   8 -14 -6.7876 26.6527   1
   2  -8  14 41.4356 32.3700   1
  -3   8 -14 -20.293 41.2262   1
   3  -8  14 2.07601 35.8460   1
   8   7 -14 9.15744 1.84184   2
   7   7 -14 18.3329 30.9534   1
   6   7 -14 36.0550 26.5933   1
   5   7 -14 91.7595 3.17428   2
   5   7 -14 79.8153 24.7657   1
   4   7 -14 35.7413 25.8567   1
  -4  -7  14 12.2522 16.6819   1
   3   7 -14 -0.8385 18.6884   1
  -3  -7  14 4.11816 13.0922   1
   2   7 -14 9.09021 20.5106   1
   1   7 -14 11.4119 16.7914   1
  -1  -7  14 -16.835 13.5549   1
   0   7 -14 24.0544 18.3021   1
   0  -7  14 -21.721 15.3819   1
  -1   7 -14 17.8181 19.6379   1
   1  -7  14 -5.0474 30.1653   1
  -2   7 -14 8.44516 22.0133   1
   2  -7  14 31.1570 23.4661   1
  -3   7 -14 11.8905 32.2583   1
   3  -7  14 -3.7865 23.7012   1
  -4   7 -14 17.6019 36.0693   1
   4  -7  14 32.7438 35.5914   1
  -5   7 -14 -26.926 45.9800   1
  -5   7 -14 -0.4462 1.25518   3
   8   6 -14 2.88044 1.47561   2
  -8  -6  14 5.33798 2.37068   3
   7   6 -14 2.79210 1.23518   2
  -7  -6  14 3.16145 2.12038   3
   6   6 -14 38.2512 2.50376   2
   6   6 -14 68.8867 30.2632   1
  -6  -6  14 49.9826 4.01344   3
   5   6 -14 4.36716 1.09660   2
   5   6 -14 -14.025 22.2176   1
  -5  -6  14 4.25666 0.97983   2
   4   6 -14 59.8079 2.45066   2
  -4  -6  14 57.8561 2.83771   2
   3   6 -14 17.3093 18.3606   1
  -3  -6  14 11.9640 14.3386   1
   2   6 -14 -5.5119 14.0651   1
  -2  -6  14 9.71072 12.8238   1
   1   6 -14 2.96254 13.5442   1
  -1  -6  14 26.8924 13.3882   1
   0   6 -14 14.3949 15.2677   1
   0  -6  14 -15.074 15.1042   1
  -1   6 -14 54.9352 18.4460   1
   1  -6  14 10.9903 15.1545   1
  -2   6 -14 2.95254 17.2359   1
   2  -6  14 -11.411 18.6767   1
  -3   6 -14 36.5293 22.1246   1
   3  -6  14 15.2117 22.2466   1
  -4   6 -14 82.3726 26.8196   1
   4  -6  14 126.974 31.2617   1
  -5   6 -14 -22.061 31.0273   1
   5  -6  14 -65.815 52.7205   1
  -6   6 -14 -0.4090 1.16612   3
  -6   6 -14 -22.457 39.8699   1
   6  -6  14 -75.681 47.2631   1
   6  -6  14 0.74643 0.96967   2
   8   5 -14 46.2288 3.24134   2
  -8  -5  14 44.3744 4.39755   3
   7   5 -14 -31.816 27.8517   1
   7   5 -14 -2.0710 1.13363   2
  -7  -5  14 -0.4212 1.70129   3
   6   5 -14 11.1555 23.2713   1
   6   5 -14 41.4843 2.65863   2
  -6  -5  14 40.7118 3.69898   3
   5   5 -14 110.842 4.22810   2
   5   5 -14 103.457 23.8894   1
  -5  -5  14 120.311 5.67611   3
  -5  -5  14 106.327 4.14074   2
   4   5 -14 36.3345 2.10835   2
   4   5 -14 61.9858 18.2384   1
  -4  -5  14 31.7167 1.96252   2
  -4  -5  14 39.8517 15.6404   1
  -4  -5  14 30.1446 2.97672   3
   3   5 -14 12.8185 1.18237   2
   3   5 -14 3.91418 13.4341   1
  -3  -5  14 17.4987 12.2793   1
   2   5 -14 79.2455 17.2094   1
   2   5 -14 69.1354 2.43753   2
  -2  -5  14 63.7461 2.33482   2
  -2  -5  14 65.1039 16.5834   1
   1   5 -14 -3.0700 12.3776   1
  -1  -5  14 4.84225 15.0246   1
   0   5 -14 -5.3299 12.3964   1
   0  -5  14 -8.3672 11.8622   1
  -1   5 -14 31.0031 15.1274   1
   1  -5  14 44.2080 15.1399   1
  -2   5 -14 30.9661 15.3026   1
   2  -5  14 -5.6563 13.8160   1
  -3   5 -14 3.17886 16.3423   1
   3  -5  14 -6.8693 18.2700   1
   3  -5  14 1.91074 0.57892   2
  -4   5 -14 57.0539 22.2007   1
   4  -5  14 62.6875 2.46862   2
   4  -5  14 65.6002 25.7057   1
  -5   5 -14 29.1247 2.17124   3
  -5   5 -14 4.67597 24.5483   1
   5  -5  14 27.5676 1.94303   2
   5  -5  14 35.3845 44.6127   1
   5  -5  14 31.9164 1.93866   2
  -6   5 -14 73.5978 32.4428   1
   6  -5  14 20.3522 35.2758   1
  -7   5 -14 53.3206 2.88549   3
   7  -5  14 59.6884 2.94384   2
   7  -5  14 11.0139 44.4037   1
   8   4 -14 6.58421 1.74035   2
  -8  -4  14 4.38855 2.23215   3
   7   4 -14 67.7770 30.1248   1
   7   4 -14 30.9720 2.76092   2
   7   4 -14 22.1633 29.7079   1
  -7  -4  14 20.0907 3.22075   3
   6   4 -14 -18.580 19.9461   1
   6   4 -14 2.12178 21.4210   1
  -6  -4  14 8.49402 2.14123   3
   5   4 -14 35.8875 2.52005   2
   5   4 -14 19.3279 19.2529   1
  -5  -4  14 28.6673 2.22377   2
  -5  -4  14 36.7118 3.28470   3
   4   4 -14 20.0088 14.8238   1
   4   4 -14 9.56319 1.38911   2
  -4  -4  14 9.26447 14.8017   1
  -4  -4  14 10.2636 1.30671   2
  -4  -4  14 9.57210 2.19465   3
   3   4 -14 14.4017 1.43802   2
   3   4 -14 -1.0092 14.2419   1
  -3  -4  14 10.2118 11.4477   1
  -3  -4  14 14.8056 1.45344   2
  -3  -4  14 13.5920 2.22875   3
   2   4 -14 67.7818 3.25668   2
   2   4 -14 84.3559 17.7100   1
  -2  -4  14 39.4807 15.6517   1
  -2  -4  14 67.9015 2.64514   2
   1   4 -14 35.8890 15.4316   1
   1   4 -14 63.9696 2.50120   2
  -1  -4  14 66.3051 2.43797   2
  -1  -4  14 53.2876 15.2049   1
   0   4 -14 18.1606 12.9966   1
   0  -4  14 -5.2908 12.1910   1
   0  -4  14 21.1305 1.27846   2
  -1   4 -14 16.3651 12.2874   1
   1  -4  14 31.1039 13.1613   1
   1  -4  14 19.7482 1.23013   2
  -2   4 -14 6.30580 13.0084   1
   2  -4  14 2.19899 0.63612   2
   2  -4  14 1.91839 0.68298   2
   2  -4  14 -0.1860 12.7567   1
  -3   4 -14 7.64416 14.4204   1
   3  -4  14 25.4787 1.62600   2
   3  -4  14 43.7957 16.4537   1
  -4   4 -14 22.7319 19.9276   1
   4  -4  14 51.0538 21.5421   1
   4  -4  14 43.9179 2.20863   2
   4  -4  14 53.8885 3.10558   2
  -5   4 -14 47.8644 22.9860   1
  -5   4 -14 9.64390 1.29324   3
   5  -4  14 6.01567 1.15632   2
   5  -4  14 8.13327 1.23631   2
  -6   4 -14 38.5337 2.15613   3
  -6   4 -14 35.1897 24.8668   1
   6  -4  14 47.7707 27.3262   1
   6  -4  14 34.7198 2.43833   2
   6  -4  14 38.4323 2.41679   2
  -7   4 -14 36.5043 35.8911   1
   7  -4  14 -6.9688 34.7899   1
   7  -4  14 6.39121 1.42554   2
   8  -4  14 -6.3679 51.1473   1
   8  -4  14 5.28370 1.37219   2
   8   3 -14 11.2746 63.1460   1
   8   3 -14 3.94413 1.77797   2
  -8  -3  14 2.01926 2.11607   3
   7   3 -14 5.22711 27.4962   1
   7   3 -14 -1.2879 26.2758   1
   7   3 -14 0.03101 1.32210   2
  -7  -3  14 1.87214 1.95542   3
   6   3 -14 35.1649 23.5423   1
   6   3 -14 27.5820 21.2270   1
   6   3 -14 43.1318 3.06245   2
  -6  -3  14 45.8671 3.85309   3
   5   3 -14 7.47913 16.5632   1
   5   3 -14 18.9869 2.06016   2
  -5  -3  14 18.0965 2.76601   3
   4   3 -14 23.1778 16.2860   1
   4   3 -14 2.23691 1.13197   2
  -4  -3  14 -0.4263 12.1285   1
  -4  -3  14 1.28083 1.38518   3
  -4  -3  14 3.83710 1.03295   2
   3   3 -14 178.612 5.80057   2
   3   3 -14 159.307 23.0540   1
  -3  -3  14 182.195 22.0051   1
  -3  -3  14 169.724 5.63593   2
   2   3 -14 4.26999 1.05931   2
   2   3 -14 0.41345 12.7702   1
  -2  -3  14 6.60130 1.46526   3
  -2  -3  14 6.15170 1.00088   2
  -2  -3  14 6.54058 12.0998   1
   1   3 -14 0.57835 0.89103   2
   1   3 -14 21.1259 11.6339   1
  -1  -3  14 0.28940 0.66440   2
  -1  -3  14 -4.8763 9.94976   1
   0   3 -14 20.9515 10.8853   1
   0  -3  14 13.2429 10.4144   1
  -1   3 -14 143.459 19.2667   1
   1  -3  14 112.623 4.26663   2
   1  -3  14 94.1859 17.0663   1
  -2   3 -14 176.763 22.4969   1
   2  -3  14 174.850 5.53858   2
   2  -3  14 197.080 23.3750   1
  -3   3 -14 -1.5798 11.5572   1
   3  -3  14 3.83654 12.0215   1
  -4   3 -14 -35.015 21.1591   1
   4  -3  14 10.4931 15.4649   1
   4  -3  14 -0.3451 0.70522   2
   4  -3  14 0.77186 0.88757   2
  -5   3 -14 24.0500 19.0935   1
   5  -3  14 19.3279 31.2645   1
   5  -3  14 10.7121 1.41759   2
   5  -3  14 9.92168 1.24124   2
  -6   3 -14 108.286 27.5320   1
   6  -3  14 78.0599 3.46186   2
   6  -3  14 71.9745 24.3306   1
   6  -3  14 82.3562 3.56149   2
  -7   3 -14 8.97899 33.8896   1
   7  -3  14 6.90149 1.43506   2
   7  -3  14 23.1450 28.4661   1
   8  -3  14 7.24727 37.4256   1
   8  -3  14 21.7558 2.21712   2
   8   2 -14 22.3054 2.65978   2
  -8  -2  14 19.7662 3.62185   3
   7   2 -14 26.8035 27.5540   1
   7   2 -14 0.99712 1.46006   2
   7   2 -14 -8.5966 50.4949   1
  -7  -2  14 4.44897 2.19967   3
   6   2 -14 27.9528 21.7110   1
   6   2 -14 5.35365 1.96141   2
   6   2 -14 -2.5145 26.1858   1
  -6  -2  14 6.40314 2.11030   3
   5   2 -14 16.9384 19.1025   1
   5   2 -14 7.65326 1.57142   2
   5   2 -14 -8.4517 18.7158   1
  -5  -2  14 8.56493 1.96233   3
   4   2 -14 44.5006 16.1841   1
   4   2 -14 27.2465 2.35692   2
  -4  -2  14 27.6784 2.76968   3
  -4  -2  14 27.9211 2.16267   2
   3   2 -14 7.82245 12.3842   1
   3   2 -14 14.7729 1.60097   2
  -3  -2  14 16.4836 2.48059   3
  -3  -2  14 26.2829 12.3362   1
  -3  -2  14 11.0463 1.36914   2
   2   2 -14 68.2619 15.3590   1
   2   2 -14 96.5312 3.82495   2
  -2  -2  14 70.0431 15.3683   1
  -2  -2  14 103.514 3.75959   2
  -2  -2  14 95.4005 4.30148   3
   1   2 -14 308.931 8.89296   2
   1   2 -14 291.088 25.3312   1
  -1  -2  14 318.283 27.5786   1
  -1  -2  14 293.672 9.31720   3
  -1  -2  14 298.634 8.79929   2
   0   2 -14 40.3545 13.0454   1
   0  -2  14 51.9667 13.4201   1
   0  -2  14 54.1464 2.41463   2
  -1   2 -14 30.1418 10.8012   1
   1  -2  14 28.7106 12.2960   1
   1  -2  14 27.9806 1.72269   2
  -2   2 -14 34.3245 11.4062   1
   2  -2  14 44.2757 2.13994   2
   2  -2  14 23.9427 12.6344   1
  -3   2 -14 44.9471 13.9298   1
   3  -2  14 29.3723 14.1043   1
   3  -2  14 36.2407 2.01467   2
   4  -2  14 3.67492 1.05190   2
   4  -2  14 6.72216 1.10207   2
   4  -2  14 2.17663 14.5893   1
  -5   2 -14 6.78342 15.8662   1
   5  -2  14 0.64937 0.81008   2
   5  -2  14 -12.966 15.3927   1
   5  -2  14 1.08638 0.96397   2
  -6   2 -14 25.7920 17.0211   1
   6  -2  14 8.24093 19.7501   1
  -7   2 -14 43.3197 28.2962   1
   7  -2  14 0.23640 0.98608   2
   7  -2  14 -10.709 22.5265   1
   8  -2  14 26.5217 34.8882   1
   9  -2  14 1.02337 1.37311   2
   8   1 -14 6.36777 2.27017   2
  -8  -1  14 4.03910 2.37178   3
   7   1 -14 -56.811 31.9158   1
   7   1 -14 36.4949 38.1866   1
   7   1 -14 0.06888 1.44993   2
  -7  -1  14 1.80332 2.06145   3
   6   1 -14 -22.446 23.4504   1
   6   1 -14 -1.0059 1.31264   2
  -6  -1  14 3.07145 1.94765   3
   5   1 -14 -7.8697 21.4726   1
   5   1 -14 -0.1001 18.0301   1
   5   1 -14 -0.0936 1.20799   2
  -5  -1  14 -0.5304 1.45719   3
   4   1 -14 61.4327 17.9911   1
   4   1 -14 54.8705 3.12249   2
   4   1 -14 58.0723 18.6298   1
  -4  -1  14 46.4361 3.42148   3
   3   1 -14 3.83861 1.21254   2
   3   1 -14 2.10224 12.3788   1
  -3  -1  14 4.43006 2.01550   3
  -3  -1  14 -4.2316 12.3663   1
  -3  -1  14 0.45506 0.87234   2
   2   1 -14 93.0308 17.0197   1
   2   1 -14 72.8786 3.35977   2
  -2  -1  14 65.4684 15.9671   1
  -2  -1  14 73.7363 3.68310   3
  -2  -1  14 74.4784 3.26209   2
   1   1 -14 300.043 25.2071   1
   1   1 -14 312.682 9.18494   2
  -1  -1  14 252.901 26.4478   1
  -1  -1  14 309.599 9.45139   3
  -1  -1  14 309.027 9.09022   2
   0   1 -14 165.540 5.53234   2
   0   1 -14 186.997 20.0453   1
   0  -1  14 177.425 20.3040   1
   0  -1  14 171.933 5.65891   3
   0  -1  14 159.474 5.41190   2
  -1   1 -14 123.024 4.45731   2
  -1   1 -14 117.249 17.2044   1
   1  -1  14 124.021 17.4538   1
   1  -1  14 129.359 4.36524   2
  -2   1 -14 50.9772 12.7150   1
   2  -1  14 30.3154 12.0116   1
   2  -1  14 49.1531 2.40149   2
  -3   1 -14 -4.0284 9.34145   1
   3  -1  14 0.84723 0.74984   2
   3  -1  14 2.01134 10.2116   1
  -4   1 -14 135.645 28.6987   1
   4  -1  14 110.668 4.13021   2
   4  -1  14 110.506 18.6426   1
  -5   1 -14 78.1199 16.4564   1
   5  -1  14 81.3927 3.60678   2
   5  -1  14 79.9105 3.42730   2
   5  -1  14 88.0771 19.7698   1
  -6   1 -14 16.5923 14.9396   1
   6  -1  14 17.3062 18.1876   1
  -7   1 -14 -21.146 19.9556   1
   7  -1  14 18.5014 22.4003   1
   7  -1  14 9.26569 1.53023   2
  -8   1 -14 -25.162 25.0850   1
   8  -1  14 0.00026 1.28109   2
   8  -1  14 -57.810 41.5048   1
   9  -1  14 1.37157 1.45445   2
   7   0 -14 -1.9417 36.9991   1
   7   0 -14 16.7635 2.51379   2
   7   0 -14 15.3328 36.8965   1
  -7   0  14 18.5900 3.12376   3
   6   0 -14 40.6327 24.0674   1
   6   0 -14 11.2415 1.97102   2
   6   0 -14 8.67355 28.5222   1
  -6   0  14 11.0947 2.59411   3
   5   0 -14 16.4191 22.9339   1
   5   0 -14 10.4205 18.7773   1
   5   0 -14 4.41617 1.68720   2
  -5   0  14 2.33710 1.69133   3
   4   0 -14 34.1377 16.4086   1
   4   0 -14 51.2581 3.18140   2
   4   0 -14 49.4519 19.8093   1
  -4   0  14 49.4323 3.59401   3
   3   0 -14 26.7076 2.34145   2
   3   0 -14 16.5898 14.7972   1
  -3   0  14 19.3901 2.69269   3
   2   0 -14 25.9364 13.5772   1
   2   0 -14 39.1733 2.64295   2
  -2   0  14 37.0232 3.10615   2
  -2   0  14 49.5021 14.3784   1
  -2   0  14 38.6114 2.70804   3
   1   0 -14 48.9570 2.76143   2
   1   0 -14 44.9603 12.6857   1
  -1   0  14 52.1693 2.80803   3
  -1   0  14 49.2775 2.57074   2
  -1   0  14 43.6624 13.2067   1
   0   0 -14 7.49979 1.29295   2
   0   0 -14 9.84461 9.53742   1
   0   0  14 11.7532 1.46850   3
   0   0  14 -5.2595 9.66976   1
   0   0  14 8.81346 1.29982   2
  -1   0 -14 662.461 18.1873   2
  -1   0 -14 649.230 35.1815   1
   1   0  14 645.875 18.0724   2
   1   0  14 724.294 37.0093   1
   1   0  14 649.798 17.9138   3
  -2   0 -14 11.5789 8.80320   1
  -2   0 -14 8.85743 1.29105   2
   2   0  14 9.30428 1.26334   2
   2   0  14 25.0740 11.2003   1
  -3   0 -14 6.60524 8.76719   1
   3   0  14 3.86287 0.97031   2
   3   0  14 18.2826 11.0798   1
  -4   0 -14 -0.1926 10.4636   1
   4   0  14 -1.6306 11.9333   1
   4   0  14 0.66980 0.88570   2
  -5   0 -14 232.658 25.9917   1
   5   0  14 261.670 8.24418   2
   5   0  14 259.842 26.6567   1
  -6   0 -14 94.7404 17.9996   1
   6   0  14 89.0218 3.98420   2
   6   0  14 84.1048 4.05452   2
   6   0  14 105.491 19.7301   1
  -7   0 -14 2.08537 15.0300   1
   7   0  14 1.42336 1.08245   2
   7   0  14 -6.9808 18.7473   1
  -8   0 -14 -11.105 21.7758   1
   8   0  14 5.49965 25.2946   1
   8   0  14 0.10622 2.09372   2
   9   0  14 3.04516 1.43571   2
  10   0  14 0.43908 1.48485   2
   7  -1 -14 -38.984 46.2719   1
   7  -1 -14 0.71901 1.67208   2
  -7   1  14 3.26577 2.22433   3
   6  -1 -14 29.3049 2.77629   2
   6  -1 -14 54.7549 28.5582   1
   6  -1 -14 52.7213 31.1431   1
  -6   1  14 23.1909 3.16437   3
   5  -1 -14 7.00919 1.82835   2
   5  -1 -14 24.2615 42.5894   1
   5  -1 -14 -2.2918 19.6555   1
  -5   1  14 5.73903 2.01121   3
   4  -1 -14 40.6790 17.0981   1
   4  -1 -14 28.5790 2.69386   2
   4  -1 -14 21.9502 18.7853   1
  -4   1  14 24.3132 2.90925   3
   3  -1 -14 149.680 5.58964   2
   3  -1 -14 111.445 21.2583   1
  -3   1  14 138.223 5.82737   3
   2  -1 -14 16.0210 11.7275   1
   2  -1 -14 6.14472 1.35099   2
  -2   1  14 7.13430 1.63433   3
  -2   1  14 -4.4332 12.8386   1
  -2   1  14 4.43998 1.09521   2
   1  -1 -14 42.2377 12.3558   1
   1  -1 -14 80.3095 3.57551   2
  -1   1  14 82.2210 3.88013   2
  -1   1  14 50.5592 13.9204   1
  -1   1  14 69.4282 3.45386   3
   0  -1 -14 8.86765 9.01486   1
   0  -1 -14 5.71689 1.30899   2
   0   1  14 3.40690 1.07041   2
   0   1  14 5.99454 1.28085   3
   0   1  14 4.74121 9.71440   1
  -1  -1 -14 3.82060 1.09109   2
  -1  -1 -14 -2.0306 8.07086   1
   1   1  14 2.09439 0.88026   2
   1   1  14 5.91118 1.08420   3
   1   1  14 -2.1117 9.63096   1
  -2  -1 -14 28.4667 9.49477   1
  -2  -1 -14 39.1609 2.46986   2
   2   1  14 36.9008 1.74007   3
   2   1  14 20.7157 12.0075   1
   2   1  14 33.7754 2.19794   2
  -3  -1 -14 34.9500 12.5570   1
   3   1  14 50.9148 14.0114   1
   3   1  14 39.5129 2.31117   2
  -4  -1 -14 50.3918 12.4890   1
   4   1  14 52.6248 2.71375   2
  -5  -1 -14 77.8332 14.7568   1
   5   1  14 62.5151 15.7540   1
   5   1  14 68.8242 3.33319   2
  -6  -1 -14 169.702 21.9398   1
   6   1  14 129.581 21.0781   1
   6   1  14 147.402 5.63143   2
  -7  -1 -14 28.1893 15.1087   1
   7   1  14 21.1531 18.1116   1
   7   1  14 30.8851 2.78355   2
  -8  -1 -14 -0.0203 18.6892   1
   8   1  14 30.1704 38.3026   1
   9   1  14 8.05423 1.66121   2
  10   1  14 -3.8806 1.29840   2
   7  -2 -14 -17.234 76.2972   1
   7  -2 -14 1.51820 1.75594   2
   6  -2 -14 61.7193 4.29029   2
   6  -2 -14 57.2842 35.7127   1
  -6   2  14 62.8729 4.76203   3
   5  -2 -14 34.1203 23.9167   1
   5  -2 -14 -10.032 28.5950   1
   5  -2 -14 1.53273 1.43806   2
  -5   2  14 4.45064 1.98275   3
   4  -2 -14 -2.9303 18.5615   1
   4  -2 -14 2.00729 1.34837   2
   4  -2 -14 -38.546 18.3311   1
  -4   2  14 -1.2344 1.42025   3
   3  -2 -14 37.6642 2.91198   2
   3  -2 -14 35.1190 18.1462   1
   3  -2 -14 8.90255 15.4094   1
  -3   2  14 36.4635 2.99492   3
   2  -2 -14 -7.2980 12.1412   1
   2  -2 -14 -7.3848 11.2695   1
  -2   2  14 7.10729 1.65545   3
   1  -2 -14 173.497 24.2346   1
   1  -2 -14 196.531 6.71624   2
  -1   2  14 187.133 6.54321   2
  -1   2  14 214.159 23.6630   1
  -1   2  14 195.785 6.70246   3
   0  -2 -14 16.9340 1.81358   2
   0   2  14 19.5021 11.2535   1
   0   2  14 18.4830 1.88102   3
   0   2  14 21.6702 1.97033   2
  -1  -2 -14 39.5210 2.62523   2
  -1  -2 -14 37.6765 12.4896   1
   1   2  14 31.6303 12.8725   1
   1   2  14 48.0697 2.71755   2
   1   2  14 40.6954 2.21007   3
  -2  -2 -14 50.9559 2.76820   2
   2   2  14 42.0250 2.55904   2
   2   2  14 45.8799 2.33828   3
   2   2  14 46.6736 12.6679   1
  -3  -2 -14 63.5598 12.4073   1
  -3  -2 -14 67.1976 3.32712   2
   3   2  14 50.0645 23.2987   1
   3   2  14 68.5041 3.14176   2
  -4  -2 -14 -5.7151 7.48050   1
   4   2  14 -3.2006 8.84600   1
   4   2  14 3.39033 1.33511   2
  -5  -2 -14 -0.3126 9.64846   1
   5   2  14 -0.9287 0.81068   2
   5   2  14 -3.9909 10.4412   1
  -6  -2 -14 26.7879 13.0025   1
   6   2  14 37.8571 15.7926   1
  -7  -2 -14 45.8460 16.5081   1
   7   2  14 51.1125 3.23464   2
   7   2  14 54.8129 18.3045   1
  -8  -2 -14 39.4491 17.3028   1
   8   2  14 27.4725 4.22097   2
   8   2  14 5.47747 30.1256   1
   9   2  14 14.4044 2.06548   2
  10   2  14 7.96790 1.92934   2
   6  -3 -14 -11.385 43.9422   1
   5  -3 -14 0.18754 28.2386   1
   5  -3 -14 6.17445 1.60122   2
  -5   3  14 3.08061 1.82276   3
   4  -3 -14 27.0247 22.5756   1
   4  -3 -14 41.0148 20.3863   1
   4  -3 -14 23.7632 2.39391   2
  -4   3  14 25.2341 3.14336   3
   3  -3 -14 12.3874 2.07308   2
   3  -3 -14 28.4801 16.8173   1
   3  -3 -14 1.44997 15.2656   1
  -3   3  14 6.69712 1.76033   3
   2  -3 -14 -13.319 14.0740   1
   2  -3 -14 2.18772 1.27422   2
   2  -3 -14 11.2344 15.9463   1
  -2   3  14 2.27407 1.23401   3
   1  -3 -14 116.991 17.4936   1
   1  -3 -14 118.597 4.92813   2
   1  -3 -14 106.605 18.1669   1
  -1   3  14 126.712 5.02155   3
   0  -3 -14 0.73461 9.51954   1
   0  -3 -14 14.2728 1.67703   2
   0   3  14 13.9067 11.8993   1
   0   3  14 12.3396 2.33548   2
   0   3  14 16.3298 1.95578   3
  -1  -3 -14 2.47062 8.22985   1
  -1  -3 -14 4.89654 1.31074   2
   1   3  14 11.2899 10.4112   1
   1   3  14 9.11435 1.37823   2
   1   3  14 10.3990 1.42316   3
  -2  -3 -14 32.5140 9.87716   1
  -2  -3 -14 24.8656 2.32187   2
   2   3  14 14.4368 11.8741   1
   2   3  14 31.1166 1.75094   3
   2   3  14 33.1105 2.30024   2
  -3  -3 -14 73.1260 12.5193   1
  -3  -3 -14 70.7808 3.45364   2
   3   3  14 50.6023 12.5106   1
   3   3  14 63.4700 3.18454   2
  -4  -3 -14 223.931 20.4093   1
   4   3  14 231.036 7.41269   2
   4   3  14 210.571 21.2077   1
  -5  -3 -14 7.82044 9.98174   1
   5   3  14 20.6204 12.0939   1
   5   3  14 21.5836 2.82570   2
  -6  -3 -14 108.240 16.9153   1
   6   3  14 106.402 18.4198   1
  -7  -3 -14 16.1509 12.7721   1
   7   3  14 14.6940 1.94181   2
   7   3  14 2.27841 15.1553   1
  -8  -3 -14 12.2873 15.6124   1
   8   3  14 16.9605 27.6359   1
   8   3  14 6.17588 1.73455   2
   9   3  14 9.02890 1.90264   2
  10   3  14 6.19773 1.88858   2
  11   3  14 5.76266 3.50268   2
   5  -4 -14 29.8435 34.8605   1
   4  -4 -14 -14.918 27.3012   1
   4  -4 -14 16.3657 26.1662   1
   4  -4 -14 3.81199 1.69212   2
  -4   4  14 2.59319 1.72395   3
   3  -4 -14 22.5242 19.2064   1
   3  -4 -14 23.6503 17.5472   1
   3  -4 -14 13.6274 2.06497   2
  -3   4  14 10.2389 2.21669   3
   2  -4 -14 8.93050 14.0785   1
   2  -4 -14 34.2595 24.3148   1
   1  -4 -14 39.5496 2.91021   2
   1  -4 -14 20.2506 13.0823   1
   1  -4 -14 15.8884 13.1510   1
  -1   4  14 45.9502 3.62541   3
   0  -4 -14 31.6493 2.58893   2
   0  -4 -14 20.5174 13.0998   1
   0  -4 -14 39.2489 11.9680   1
   0   4  14 29.4326 2.33106   3
  -1  -4 -14 5.66697 1.29902   2
  -1  -4 -14 -13.651 9.24969   1
   1   4  14 -4.9440 9.64799   1
  -2  -4 -14 14.2468 1.55949   2
  -2  -4 -14 14.0781 9.68914   1
   2   4  14 15.1378 11.4133   1
   2   4  14 17.8160 1.51285   3
  -3  -4 -14 146.136 17.2157   1
  -3  -4 -14 124.980 4.80014   2
   3   4  14 111.268 16.5940   1
   3   4  14 117.477 3.74283   3
   3   4  14 98.2781 4.92091   2
  -4  -4 -14 -7.0340 8.26720   1
   4   4  14 -2.0918 9.70397   1
  -5  -4 -14 18.8108 10.1043   1
   5   4  14 53.8952 13.9386   1
  -6  -4 -14 84.4762 14.6752   1
   6   4  14 136.980 19.2083   1
  -7  -4 -14 4.28602 11.0720   1
   7   4  14 -7.6344 13.0950   1
  -8  -4 -14 64.7178 16.2566   1
   8   4  14 67.2458 4.02081   2
   8   4  14 36.1245 17.7385   1
   9   4  14 -1.8148 1.34961   2
  10   4  14 2.18936 1.74918   2
  11   4  14 -0.4510 2.52036   2
   5  -5 -14 2.61030 1.72535   2
  -5   5  14 3.97518 1.88490   3
   4  -5 -14 26.8681 32.6705   1
   4  -5 -14 5.91417 1.84202   2
  -4   5  14 8.37854 2.27535   3
   3  -5 -14 -12.042 21.7168   1
   3  -5 -14 -9.2517 21.9101   1
   3  -5 -14 1.98316 1.46902   2
  -3   5  14 -0.8964 1.47753   3
   2  -5 -14 0.76686 17.1986   1
   2  -5 -14 0.33668 1.23589   2
   2  -5 -14 -2.0282 20.0030   1
  -2   5  14 -2.9622 1.07919   3
   1  -5 -14 3.00110 14.6784   1
   1  -5 -14 -26.011 13.7499   1
  -1   5  14 -0.9907 1.07641   3
   0  -5 -14 8.16788 1.47962   2
   0  -5 -14 4.71873 12.0946   1
   0   5  14 9.53627 1.65057   3
  -1  -5 -14 33.0606 11.6066   1
  -1  -5 -14 26.9016 12.6380   1
  -1  -5 -14 55.0387 3.21605   2
   1   5  14 77.8071 16.5964   1
   1   5  14 49.5755 2.87406   3
  -2  -5 -14 13.3344 1.67153   2
  -2  -5 -14 3.83305 11.2042   1
  -2  -5 -14 3.87559 8.78515   1
   2   5  14 10.5672 11.8802   1
   2   5  14 11.4305 1.48851   3
  -3  -5 -14 1.72440 9.51639   1
  -3  -5 -14 0.08730 1.03428   2
  -3  -5 -14 -0.5378 8.19287   1
   3   5  14 6.53419 10.6593   1
   3   5  14 1.86767 0.81656   3
  -4  -5 -14 93.7381 4.34547   2
  -4  -5 -14 88.6241 13.2577   1
   4   5  14 116.445 16.8315   1
  -5  -5 -14 137.375 17.2854   1
   5   5  14 160.246 19.2638   1
  -6  -5 -14 133.506 15.7220   1
   6   5  14 139.489 19.0428   1
  -7  -5 -14 43.8382 12.4538   1
   7   5  14 19.6103 13.6597   1
  -8  -5 -14 47.4958 15.0605   1
   8   5  14 29.8423 2.79796   2
   8   5  14 37.1504 17.4546   1
  -9  -5 -14 2.22456 22.6377   1
   9   5  14 4.76221 1.64904   2
  10   5  14 0.47058 1.36300   2
  11   5  14 -4.9890 3.02773   2
   4  -6 -14 -0.5675 2.40518   2
  -4   6  14 2.51369 2.08803   3
   3  -6 -14 25.3240 30.2846   1
   2  -6 -14 -11.318 22.6817   1
   2  -6 -14 -7.1676 22.1056   1
   2  -6 -14 5.82014 1.67403   2
  -2   6  14 4.74457 1.99564   3
   1  -6 -14 4.13373 16.1433   1
   1  -6 -14 -0.2012 1.13343   2
  -1   6  14 -1.0009 1.22451   3
   0  -6 -14 4.12933 1.39704   2
   0  -6 -14 0.89337 14.1249   1
   0  -6 -14 -14.849 12.8624   1
   0   6  14 4.05227 1.39330   3
  -1  -6 -14 3.42798 1.26013   2
  -1  -6 -14 -10.777 10.6032   1
  -1  -6 -14 7.63696 14.6512   1
   1   6  14 4.10099 1.44184   3
  -2  -6 -14 50.9467 12.0877   1
  -2  -6 -14 45.3342 3.15691   2
  -2  -6 -14 41.5155 20.9686   1
   2   6  14 47.2088 2.71429   3
  -3  -6 -14 9.04428 9.25467   1
  -3  -6 -14 9.44043 1.69747   2
  -3  -6 -14 17.9561 10.9293   1
   3   6  14 9.67954 1.39821   3
   3   6  14 22.8333 12.1764   1
  -4  -6 -14 24.1690 10.2759   1
  -4  -6 -14 20.4048 2.27511   2
  -4  -6 -14 15.5582 9.39742   1
   4   6  14 27.7797 12.0423   1
   4   6  14 20.6816 1.47092   3
  -5  -6 -14 -4.0551 8.75339   1
  -5  -6 -14 3.97310 9.12367   1
   5   6  14 4.51183 11.5580   1
  -6  -6 -14 28.4417 9.69812   1
   6   6  14 25.8054 12.6775   1
  -7  -6 -14 45.9718 10.3367   1
   8   6  14 -6.0512 14.9321   1
  -9  -6 -14 6.23646 9.48618   1
   9   6  14 5.41694 1.80328   2
  10   6  14 19.8745 2.67641   2
  11   6  14 0.28418 2.29127   2
   3  -7 -14 -0.9200 2.13341   2
  -3   7  14 6.81489 2.34497   3
   2  -7 -14 -0.1536 1.29729   2
   2  -7 -14 -15.095 30.6376   1
  -2   7  14 1.80327 1.93410   3
   1  -7 -14 16.6113 22.1537   1
   1  -7 -14 25.9160 2.81707   2
  -1   7  14 21.2566 3.02434   3
   0  -7 -14 10.2446 15.6435   1
  -1  -7 -14 46.1989 14.6576   1
  -1  -7 -14 58.7104 3.64907   2
  -1  -7 -14 42.1518 17.0192   1
   1   7  14 60.1795 3.51675   3
  -2  -7 -14 3.11989 1.37262   2
  -2  -7 -14 7.04415 10.6987   1
  -2  -7 -14 -18.313 12.2637   1
   2   7  14 -0.3474 1.03253   3
  -3  -7 -14 3.88581 1.35597   2
  -3  -7 -14 2.55872 9.88776   1
  -3  -7 -14 -6.7635 10.4408   1
   3   7  14 5.27077 1.27468   3
  -4  -7 -14 4.86309 1.54004   2
  -4  -7 -14 7.31050 9.10028   1
  -4  -7 -14 -9.0954 8.85539   1
   4   7  14 2.17185 0.94958   3
   4   7  14 -8.7066 12.2605   1
  -5  -7 -14 17.4820 8.74560   1
  -5  -7 -14 19.5333 12.9628   1
   5   7  14 16.1403 13.0222   1
  -6  -7 -14 8.84956 6.28669   1
  -6  -7 -14 15.4891 5.72677   1
   7   7  14 6.77357 12.7088   1
   9   7  14 -3.1049 1.35093   2
  10   7  14 4.45767 2.10165   2
  11   7  14 0.76054 1.97923   2
   2  -8 -14 0.17130 1.99056   2
  -2   8  14 0.72987 1.77083   3
   1  -8 -14 -13.468 54.3358   1
   0  -8 -14 25.0103 21.1049   1
   0  -8 -14 15.7614 2.37524   2
   0   8  14 13.5759 2.53389   3
  -1  -8 -14 6.87781 16.5424   1
  -2  -8 -14 -1.0917 11.6252   1
  -2  -8 -14 1.50626 1.22254   2
  -2  -8 -14 -7.8902 14.0473   1
   2   8  14 -0.1199 1.17806   3
  -3  -8 -14 44.2201 12.1091   1
  -3  -8 -14 4.15468 12.3416   1
  -3  -8 -14 46.6106 3.24160   2
   3   8  14 47.0282 2.90749   3
  -4  -8 -14 -4.8628 12.2418   1
  -4  -8 -14 -6.0154 8.52196   1
  -4  -8 -14 -0.4112 1.14061   2
   4   8  14 -0.4746 0.95819   3
   5   8  14 20.7909 14.2285   1
   6   8  14 10.5264 13.3354   1
   9   8  14 1.51853 1.65663   2
  10   8  14 9.88992 2.38699   2
   1  -9 -14 1.78481 1.67621   2
  -1   9  14 3.78900 2.46241   3
   0  -9 -14 10.6588 27.2710   1
   0  -9 -14 7.41126 2.05079   2
   0   9  14 7.09819 2.16426   3
  -1  -9 -14 22.2053 2.42836   2
  -1  -9 -14 34.1495 21.4629   1
   1   9  14 26.6297 2.92737   3
  -2  -9 -14 75.3706 4.36873   2
   2   9  14 86.9077 4.48029   3
  -3  -9 -14 6.36010 11.4339   1
  -3  -9 -14 13.7700 11.2199   1
  -4  -9 -14 9.63897 1.69929   2
   4   9  14 11.7825 2.14594   3
   5   9  14 20.8920 1.99168   3
   6   9  14 3.84688 1.00978   3
  10   9  14 -1.8664 2.07971   2
  -1 -10 -14 21.2928 2.54149   2
  -1 -10 -14 23.2981 25.2778   1
   1  10  14 30.0564 3.79527   3
  -2 -10 -14 7.65558 1.86916   2
  -2 -10 -14 30.6462 17.8315   1
   2  10  14 10.0103 2.34154   3
  -3 -10 -14 2.60455 1.57627   2
   3  10  14 1.13982 1.46765   3
  -4 -10 -14 20.1938 2.61183   2
   4  10  14 20.2107 2.56976   3
   5  10  14 8.50106 1.65767   3
   6  10  14 1.14988 1.00595   3
  -3 -11 -14 27.7984 3.03938   2
   3  11  14 32.2983 3.50469   3
  -4 -11 -14 34.8001 3.27175   2
   4  11  14 25.1946 2.89589   3
   5  11  14 1.84151 1.44020   3
   6  11  14 24.1641 2.48008   3
   7  11  14 0.98233 2.10970   3
   4   9 -15 -21.980 31.9676   1
  -4  -9  15 10.2932 26.1741   1
   3   9 -15 38.6421 39.3634   1
  -3  -9  15 10.3028 37.6405   1
   2   9 -15 -22.169 32.1123   1
  -2  -9  15 -20.561 40.2234   1
   1   9 -15 -8.6567 32.5136   1
  -1  -9  15 87.9030 29.2829   1
   0   9 -15 -7.6188 31.5039   1
   7   8 -15 11.9643 1.99311   2
   5   8 -15 -14.806 30.1286   1
   3   8 -15 75.5098 33.3558   1
  -3  -8  15 30.7607 21.7214   1
   2   8 -15 9.10416 25.0625   1
  -2  -8  15 -21.056 20.7303   1
   1   8 -15 55.6616 24.7946   1
   0   8 -15 9.93727 25.4015   1
   0  -8  15 15.2815 24.4433   1
  -1   8 -15 12.7770 27.2853   1
   1  -8  15 -4.4912 25.0266   1
  -2   8 -15 15.5458 31.7410   1
   2  -8  15 1.82704 29.1807   1
  -3   8 -15 68.6038 44.7231   1
   7   7 -15 0.85984 1.12977   2
   6   7 -15 48.3382 31.8241   1
   6   7 -15 39.7465 2.33434   2
   5   7 -15 103.023 32.2332   1
   4   7 -15 -13.790 33.0536   1
  -4  -7  15 19.9748 19.1305   1
   3   7 -15 3.28084 19.3596   1
   2   7 -15 -13.533 20.2307   1
  -2  -7  15 1.79091 18.2534   1
   1   7 -15 1.26426 21.1071   1
  -1  -7  15 11.8078 16.1917   1
   0   7 -15 44.4461 21.9007   1
   0  -7  15 17.0112 21.4693   1
  -1   7 -15 -43.262 20.8893   1
   1  -7  15 15.4736 23.4393   1
  -2   7 -15 96.2554 30.3429   1
   2  -7  15 75.0827 28.1834   1
  -3   7 -15 116.739 35.1282   1
   3  -7  15 82.2236 32.3646   1
  -4   7 -15 -29.398 40.0867   1
   4  -7  15 29.5100 40.6891   1
   7   6 -15 3.28395 1.31226   2
  -7  -6  15 0.06513 1.93501   3
   6   6 -15 27.4823 2.30413   2
   6   6 -15 63.1705 28.9233   1
  -6  -6  15 32.2154 3.94147   3
  -6  -6  15 26.8797 2.43612   2
   5   6 -15 4.75185 1.09018   2
   5   6 -15 -9.7879 23.5144   1
   4   6 -15 12.6106 1.73001   2
   4   6 -15 2.26943 19.1435   1
  -4  -6  15 2.28867 19.7504   1
  -4  -6  15 9.49048 1.10167   2
   3   6 -15 130.787 25.5175   1
  -3  -6  15 184.018 24.6318   1
   2   6 -15 4.90580 16.8161   1
  -2  -6  15 -11.354 16.0484   1
   1   6 -15 8.73956 15.4253   1
  -1  -6  15 9.22948 14.4941   1
   0   6 -15 9.81753 16.8391   1
   0  -6  15 -1.8687 16.3208   1
  -1   6 -15 3.22128 20.6202   1
   1  -6  15 -3.8368 17.0271   1
  -2   6 -15 1.89338 20.2317   1
   2  -6  15 -13.232 18.6123   1
  -3   6 -15 129.055 33.5493   1
   3  -6  15 96.5332 29.6884   1
  -4   6 -15 -36.105 26.4106   1
   4  -6  15 16.5278 28.4281   1
  -5   6 -15 2.00573 1.16024   3
  -5   6 -15 -20.783 33.8248   1
   5  -6  15 5.37497 37.0851   1
  -6   6 -15 4.78200 1.48312   3
   6  -6  15 3.47163 1.32644   2
   8   5 -15 -1.5374 1.45610   2
  -8  -5  15 -0.2390 2.04919   3
   7   5 -15 -20.508 30.1274   1
  -7  -5  15 7.91104 2.42824   3
   6   5 -15 37.9939 25.3395   1
   5   5 -15 22.1052 2.14040   2
   5   5 -15 27.8338 22.9820   1
  -5  -5  15 25.3550 2.99108   3
   4   5 -15 5.37791 1.13333   2
   4   5 -15 -1.0147 18.3826   1
  -4  -5  15 0.86429 14.6198   1
  -4  -5  15 8.89538 2.27536   3
  -4  -5  15 8.32715 1.13232   2
   3   5 -15 52.6604 3.00587   2
   3   5 -15 36.6520 18.1924   1
  -3  -5  15 44.8144 15.0136   1
  -3  -5  15 54.5569 2.30389   2
   2   5 -15 29.6798 15.9449   1
  -2  -5  15 8.63015 13.6194   1
   1   5 -15 -11.573 14.2937   1
  -1  -5  15 15.2975 14.8846   1
   0   5 -15 19.7758 14.5835   1
   0  -5  15 -12.259 13.2194   1
  -1   5 -15 14.3610 14.7189   1
   1  -5  15 13.2895 17.2620   1
  -2   5 -15 22.5972 18.5078   1
   2  -5  15 -6.6329 15.7914   1
   3  -5  15 12.6027 21.8889   1
  -4   5 -15 9.50400 22.3788   1
   4  -5  15 -7.2448 25.4129   1
  -5   5 -15 78.8702 3.43955   3
  -5   5 -15 46.1994 32.2103   1
   5  -5  15 85.5688 3.16493   2
   5  -5  15 87.3848 31.7972   1
   5  -5  15 77.1881 3.15114   2
  -6   5 -15 43.2189 2.48172   3
  -6   5 -15 41.8433 36.8376   1
   6  -5  15 44.9369 41.5962   1
   6  -5  15 43.7594 2.41644   2
   8   4 -15 21.3977 2.47449   2
  -8  -4  15 25.0711 3.90184   3
   7   4 -15 29.0697 30.2274   1
   7   4 -15 3.80618 1.50526   2
  -7  -4  15 6.46781 2.34955   3
   6   4 -15 -26.606 25.9342   1
   6   4 -15 -21.011 34.1517   1
   5   4 -15 23.1919 20.6473   1
   4   4 -15 64.2735 20.0013   1
   4   4 -15 85.0788 3.54713   2
  -4  -4  15 82.6744 4.54290   3
  -4  -4  15 55.3160 20.2461   1
  -4  -4  15 79.5824 3.35783   2
   3   4 -15 247.384 29.7688   1
   3   4 -15 237.877 7.33935   2
  -3  -4  15 251.092 8.61433   3
  -3  -4  15 234.733 25.7900   1
  -3  -4  15 232.444 7.26611   2
   2   4 -15 0.26910 0.83703   2
   2   4 -15 -16.308 12.4551   1
  -2  -4  15 12.5434 12.3025   1
  -2  -4  15 0.04961 0.62886   2
   1   4 -15 2.73218 0.80754   2
   1   4 -15 19.7619 13.2815   1
  -1  -4  15 -6.6731 13.7181   1
   0   4 -15 5.86566 13.2103   1
   0  -4  15 -0.1933 12.6270   1
   0  -4  15 2.04038 0.66275   2
  -1   4 -15 9.95648 12.9481   1
   1  -4  15 12.7119 1.13656   2
   1  -4  15 -9.0932 13.7657   1
  -2   4 -15 27.7359 15.7851   1
   2  -4  15 20.0278 16.1625   1
   2  -4  15 10.1971 0.98145   2
   2  -4  15 9.70013 1.01244   2
  -3   4 -15 -13.662 21.3950   1
   3  -4  15 16.3893 17.3562   1
   3  -4  15 1.41972 0.68118   2
  -4   4 -15 106.071 25.7444   1
   4  -4  15 82.7266 23.7937   1
   4  -4  15 96.8748 3.53238   2
   4  -4  15 99.8928 3.57145   2
  -5   4 -15 -19.425 23.5967   1
  -5   4 -15 1.82566 0.90332   3
   5  -4  15 -1.3842 0.82900   2
   5  -4  15 -0.3510 0.80720   2
   5  -4  15 31.7313 24.5170   1
  -6   4 -15 45.4411 29.5153   1
   6  -4  15 52.0257 2.87119   2
   6  -4  15 43.8179 29.6296   1
   6  -4  15 52.0407 2.74102   2
   7  -4  15 11.7408 37.8536   1
   8   3 -15 -3.8747 1.52222   2
  -8  -3  15 0.70611 2.11145   3
   7   3 -15 26.8618 35.9741   1
   7   3 -15 14.1476 2.10058   2
   7   3 -15 -28.578 53.4963   1
  -7  -3  15 17.2646 3.22060   3
   6   3 -15 41.6193 31.3655   1
   6   3 -15 10.4209 23.3738   1
  -6  -3  15 5.76512 2.19056   3
   5   3 -15 21.0589 19.7207   1
   5   3 -15 10.9349 1.62060   2
  -5  -3  15 11.1992 2.48080   3
   4   3 -15 16.1029 16.7675   1
   4   3 -15 14.5721 1.68959   2
  -4  -3  15 16.3860 1.63855   2
  -4  -3  15 10.6731 2.01287   3
   3   3 -15 32.8597 2.28776   2
   3   3 -15 46.8578 16.4857   1
  -3  -3  15 31.9949 2.05533   2
  -3  -3  15 37.2121 14.8391   1
  -3  -3  15 36.2481 2.91811   3
   2   3 -15 2.21675 1.00536   2
   2   3 -15 -20.147 11.8629   1
  -2  -3  15 2.89738 11.8862   1
  -2  -3  15 1.78165 0.81514   2
  -2  -3  15 2.71742 1.49744   3
   1   3 -15 19.5008 1.78239   2
   1   3 -15 6.17957 11.7811   1
  -1  -3  15 25.7912 13.4162   1
  -1  -3  15 16.6762 1.48971   2
   0   3 -15 9.02526 11.3507   1
   0  -3  15 -4.2247 10.8185   1
   0  -3  15 1.55019 0.74692   2
  -1   3 -15 -3.2129 12.3332   1
   1  -3  15 -0.6273 0.56611   2
   1  -3  15 -14.039 12.2394   1
  -2   3 -15 -13.811 12.2086   1
   2  -3  15 4.08464 12.9904   1
   2  -3  15 0.93495 0.68659   2
  -3   3 -15 41.3444 18.2525   1
   3  -3  15 60.1529 2.78112   2
   3  -3  15 69.5056 20.3297   1
   3  -3  15 55.5750 2.48264   2
  -4   3 -15 -10.520 15.4732   1
   4  -3  15 -0.3771 18.1012   1
  -5   3 -15 16.5711 20.7585   1
   5  -3  15 8.49399 23.9524   1
   5  -3  15 15.2330 1.52366   2
   5  -3  15 17.4230 1.66526   2
  -6   3 -15 3.17829 25.5930   1
   6  -3  15 8.96743 1.38913   2
   6  -3  15 8.98166 1.58854   2
   6  -3  15 30.3115 23.8154   1
  -7   3 -15 -10.574 29.3354   1
   7  -3  15 53.0213 31.6849   1
   7  -3  15 -3.1896 0.91162   2
   8  -3  15 -1.2656 1.04009   2
   7   2 -15 26.5239 36.4635   1
   7   2 -15 2.50069 1.52770   2
   7   2 -15 37.7369 34.7583   1
  -7  -2  15 9.92854 2.75652   3
   6   2 -15 45.0258 30.6065   1
   6   2 -15 18.9034 2.31192   2
   6   2 -15 54.6523 29.2374   1
  -6  -2  15 21.5082 3.09083   3
   5   2 -15 3.04690 1.40559   2
   5   2 -15 7.04257 19.9848   1
   5   2 -15 -0.9588 21.7417   1
  -5  -2  15 2.34230 1.76166   3
   4   2 -15 -8.9570 15.4822   1
  -4  -2  15 8.91883 2.21045   3
   3   2 -15 5.32376 1.27782   2
   3   2 -15 2.70771 13.4721   1
  -3  -2  15 34.8531 14.8704   1
  -3  -2  15 1.96079 1.04654   2
  -3  -2  15 4.15391 1.47328   3
   2   2 -15 15.0170 1.62448   2
   2   2 -15 4.10365 14.0212   1
  -2  -2  15 15.5224 1.99493   3
  -2  -2  15 13.1676 1.47125   2
  -2  -2  15 13.8382 12.4255   1
   1   2 -15 118.249 4.28527   2
   1   2 -15 123.770 19.3255   1
  -1  -2  15 115.219 4.63273   3
  -1  -2  15 123.216 19.3737   1
  -1  -2  15 109.233 4.09210   2
   0   2 -15 25.9728 1.87020   2
   0   2 -15 24.3308 12.5917   1
   0  -2  15 29.2439 12.9476   1
   0  -2  15 19.1378 1.60761   2
  -1   2 -15 19.1174 11.6028   1
   1  -2  15 22.0757 13.9580   1
   1  -2  15 16.6567 1.48709   2
  -2   2 -15 46.1092 14.1026   1
   2  -2  15 30.7863 13.7971   1
   2  -2  15 29.2867 1.82311   2
  -3   2 -15 -10.621 13.2443   1
   3  -2  15 2.54856 0.80316   2
   3  -2  15 15.2609 12.8084   1
  -4   2 -15 47.6402 16.6598   1
   4  -2  15 56.6322 2.71963   2
   4  -2  15 63.3184 2.94650   2
   4  -2  15 48.0791 17.9405   1
  -5   2 -15 -4.3017 17.5670   1
   5  -2  15 4.26061 1.19220   2
   5  -2  15 1.59176 19.3328   1
   5  -2  15 2.72687 1.04295   2
  -6   2 -15 12.4203 19.2750   1
   6  -2  15 21.2664 20.6617   1
  -7   2 -15 10.1064 24.3992   1
   7  -2  15 22.7260 25.6483   1
   8  -2  15 23.9929 33.8548   1
   7   1 -15 -14.064 35.3545   1
   7   1 -15 2.67858 1.71740   2
   7   1 -15 -4.5433 36.3279   1
  -7  -1  15 2.39457 1.97564   3
   6   1 -15 9.68839 28.4463   1
   6   1 -15 -9.4331 26.4753   1
   5   1 -15 31.5764 3.72838   2
   5   1 -15 30.2835 23.3188   1
  -5  -1  15 33.2784 3.27802   3
   4   1 -15 11.9904 19.0379   1
   4   1 -15 -4.7346 15.7923   1
   4   1 -15 10.1411 1.67657   2
  -4  -1  15 6.37411 1.97117   3
   3   1 -15 80.3035 18.9454   1
   3   1 -15 72.5708 3.52824   2
  -3  -1  15 67.4666 3.67634   2
  -3  -1  15 69.6578 3.87214   3
  -3  -1  15 65.5889 17.9689   1
   2   1 -15 52.2758 2.86275   2
   2   1 -15 56.1461 17.0749   1
  -2  -1  15 45.8754 3.07593   3
  -2  -1  15 35.0244 15.6398   1
   1   1 -15 4.55976 1.15817   2
   1   1 -15 -6.4834 11.6597   1
  -1  -1  15 4.44944 1.10657   2
  -1  -1  15 5.25267 1.34490   3
  -1  -1  15 13.9040 11.5879   1
   0   1 -15 66.1325 3.04069   2
   0   1 -15 56.5655 15.2522   1
   0  -1  15 62.0582 3.00576   3
   0  -1  15 50.0727 15.0608   1
   0  -1  15 60.7642 2.84297   2
  -1   1 -15 151.559 19.0212   1
  -1   1 -15 156.765 5.23906   2
   1  -1  15 152.366 5.11844   2
   1  -1  15 127.439 18.5759   1
  -2   1 -15 16.5970 11.0327   1
   2  -1  15 9.93629 1.20906   2
   2  -1  15 9.99790 12.2278   1
   3  -1  15 1.28901 0.79188   2
   3  -1  15 0.60939 11.9682   1
  -4   1 -15 10.7818 12.9120   1
   4  -1  15 15.8274 1.57097   2
   4  -1  15 8.03668 23.3339   1
  -5   1 -15 -32.660 12.3508   1
   5  -1  15 -9.5383 15.1293   1
   5  -1  15 1.26345 1.08148   2
   5  -1  15 1.09848 1.05075   2
  -6   1 -15 -1.3732 18.5337   1
   6  -1  15 1.88534 1.13798   2
   6  -1  15 6.02635 17.7633   1
  -7   1 -15 16.0990 31.5245   1
   7  -1  15 1.77325 1.17747   2
   7  -1  15 2.54656 22.6376   1
   8  -1  15 -32.278 30.7395   1
   8  -1  15 4.68232 1.43865   2
   9  -1  15 5.68685 1.51816   2
   7   0 -15 10.3600 2.15185   2
   7   0 -15 17.8114 45.6525   1
   7   0 -15 -48.066 43.1408   1
  -7   0  15 12.3329 3.22293   3
   6   0 -15 -27.282 30.6741   1
   6   0 -15 -36.326 30.1108   1
   6   0 -15 6.93069 1.77440   2
  -6   0  15 4.19639 2.19643   3
   5   0 -15 -14.129 23.7637   1
   5   0 -15 -24.424 25.6058   1
   5   0 -15 0.98922 1.29486   2
  -5   0  15 0.18558 1.56290   3
   4   0 -15 82.2370 23.5769   1
   4   0 -15 82.2253 4.11653   2
   4   0 -15 95.3591 26.4141   1
  -4   0  15 79.3833 4.52870   3
   3   0 -15 13.1805 1.77328   2
   3   0 -15 40.1771 19.6738   1
  -3   0  15 14.2573 2.20491   3
   2   0 -15 -3.3556 11.5708   1
   2   0 -15 0.39011 0.99635   2
  -2   0  15 10.6719 14.8142   1
  -2   0  15 1.27371 0.96839   2
  -2   0  15 0.83985 1.25943   3
   1   0 -15 38.4560 13.0308   1
   1   0 -15 40.4060 2.60654   2
  -1   0  15 14.9561 12.5820   1
  -1   0  15 39.8544 2.58873   3
   0   0 -15 60.7921 15.0437   1
   0   0 -15 55.7858 2.97384   2
   0   0  15 57.4221 2.86034   3
   0   0  15 54.0756 15.2378   1
   0   0  15 58.2942 2.83215   2
  -1   0 -15 22.7266 2.01741   2
  -1   0 -15 30.5481 11.8627   1
   1   0  15 28.5314 2.00960   2
   1   0  15 32.4962 13.3057   1
   1   0  15 22.3202 1.73301   3
  -2   0 -15 81.3406 14.6999   1
  -2   0 -15 94.6166 3.81369   2
   2   0  15 90.2108 3.64646   2
   2   0  15 82.5794 16.4332   1
  -3   0 -15 156.474 18.9144   1
   3   0  15 174.895 21.4775   1
   3   0  15 140.504 5.02496   2
  -4   0 -15 12.6535 12.8760   1
   4   0  15 26.5666 13.9684   1
   4   0  15 18.2447 1.72399   2
  -5   0 -15 70.3896 17.5158   1
   5   0  15 93.3505 19.8279   1
   5   0  15 75.9043 3.49409   2
  -6   0 -15 -25.583 14.5555   1
   6   0  15 20.6991 16.8405   1
   6   0  15 2.28018 1.21486   2
   7   0  15 5.26514 1.51114   2
   7   0  15 -2.9231 19.8498   1
   8   0  15 -32.805 26.6751   1
   8   0  15 0.44635 1.21035   2
   9   0  15 1.24345 1.48707   2
   7  -1 -15 -52.197 63.9469   1
   6  -1 -15 40.1829 35.4541   1
   6  -1 -15 4.84621 31.8398   1
   6  -1 -15 22.5424 2.80418   2
  -6   1  15 21.2041 3.09812   3
   5  -1 -15 67.0967 29.7740   1
   5  -1 -15 71.5291 4.21693   2
   5  -1 -15 88.6749 26.0453   1
  -5   1  15 79.1458 4.90400   3
   4  -1 -15 -22.967 19.1592   1
   4  -1 -15 7.48440 18.8566   1
   4  -1 -15 0.77624 1.27975   2
  -4   1  15 2.49853 1.76442   3
   3  -1 -15 -0.1762 1.16901   2
   3  -1 -15 11.2012 17.3181   1
   3  -1 -15 -5.4103 16.8799   1
  -3   1  15 2.38806 1.48682   3
   2  -1 -15 55.1135 3.24916   2
   2  -1 -15 56.8061 15.9711   1
  -2   1  15 66.7596 4.11266   3
  -2   1  15 31.7275 15.8368   1
   1  -1 -15 1.58647 1.00913   2
  -1   1  15 5.03511 1.10026   2
  -1   1  15 3.16567 1.25042   3
  -1   1  15 -0.9846 11.2719   1
   0  -1 -15 95.5995 3.95040   2
   0   1  15 90.3706 3.75423   3
   0   1  15 72.6615 16.7827   1
   0   1  15 86.4124 3.75303   2
  -1  -1 -15 16.0891 1.74962   2
   1   1  15 46.6199 13.6845   1
   1   1  15 15.9062 1.70379   2
   1   1  15 19.6115 1.60222   3
  -2  -1 -15 4.51830 8.86000   1
  -2  -1 -15 9.94366 1.46868   2
   2   1  15 10.5102 10.3468   1
   2   1  15 7.31465 1.17361   2
  -3  -1 -15 71.3642 14.2363   1
   3   1  15 72.3275 3.42673   2
  -4  -1 -15 34.7024 12.0093   1
   4   1  15 34.0291 14.3452   1
   4   1  15 35.6472 2.39040   2
  -5  -1 -15 39.8648 13.1567   1
   5   1  15 10.4005 1.47162   2
   5   1  15 16.6144 15.7256   1
  -6  -1 -15 52.9010 16.9375   1
   6   1  15 55.7700 19.6286   1
   6   1  15 61.1040 3.41237   2
  -7  -1 -15 62.1662 20.3669   1
   7   1  15 89.7879 4.29113   2
   7   1  15 52.8422 21.3721   1
  -8  -1 -15 -2.7856 20.9623   1
   8   1  15 -21.160 21.5941   1
   8   1  15 -0.2098 1.17846   2
   9   1  15 6.48249 1.84245   2
  10   1  15 2.28872 1.74968   2
   6  -2 -15 52.6996 38.2120   1
   6  -2 -15 83.6782 4.93374   2
   6  -2 -15 130.896 47.5200   1
  -6   2  15 82.9060 5.59394   3
   5  -2 -15 30.4910 3.03740   2
   5  -2 -15 53.7549 28.7790   1
   5  -2 -15 -20.014 38.5816   1
  -5   2  15 27.9169 3.70128   3
   4  -2 -15 10.9043 23.4868   1
   4  -2 -15 17.9190 2.20828   2
   4  -2 -15 28.2237 22.5931   1
  -4   2  15 17.0347 2.75107   3
   3  -2 -15 36.9496 19.5062   1
   3  -2 -15 23.4825 20.0662   1
  -3   2  15 19.4348 2.46996   3
   2  -2 -15 85.1698 19.5307   1
   2  -2 -15 41.8399 17.2101   1
   2  -2 -15 78.2126 3.83681   2
  -2   2  15 66.1452 3.76810   3
   1  -2 -15 -9.6056 12.5132   1
   1  -2 -15 2.81648 1.24100   2
  -1   2  15 4.48392 1.47090   3
  -1   2  15 5.36483 21.7866   1
   0  -2 -15 41.1513 12.6894   1
   0  -2 -15 31.8925 2.48415   2
   0   2  15 33.9971 2.37794   3
   0   2  15 6.67303 22.2594   1
   0   2  15 33.1117 2.61516   2
  -1  -2 -15 8.59692 10.4012   1
  -1  -2 -15 10.6414 1.50934   2
   1   2  15 3.88576 20.3281   1
   1   2  15 13.6420 1.51648   3
   1   2  15 11.3153 1.43710   2
  -2  -2 -15 76.9417 3.50387   2
  -2  -2 -15 74.6131 13.7465   1
   2   2  15 49.5238 13.9892   1
   2   2  15 67.4244 2.70233   3
   2   2  15 73.8593 3.30468   2
  -3  -2 -15 5.71135 1.31756   2
  -3  -2 -15 12.6004 9.35556   1
   3   2  15 7.92751 1.26009   2
   3   2  15 8.17806 11.5487   1
  -4  -2 -15 0.38378 9.93072   1
   4   2  15 3.19415 11.3022   1
   4   2  15 3.04120 1.13431   2
  -5  -2 -15 5.43875 11.4851   1
   5   2  15 2.91306 13.9831   1
  -6  -2 -15 14.0624 13.9667   1
   6   2  15 7.50060 13.7379   1
  -7  -2 -15 -12.234 15.8296   1
   7   2  15 4.62148 1.48452   2
   7   2  15 2.04067 16.5451   1
  -8  -2 -15 -11.466 18.4209   1
   8   2  15 0.57679 1.24730   2
   8   2  15 -32.305 20.2953   1
   9   2  15 0.01905 1.48069   2
  10   2  15 1.50423 1.63703   2
   6  -3 -15 18.8750 2.66936   2
   5  -3 -15 10.3036 30.2956   1
   5  -3 -15 -0.0605 1.53038   2
   5  -3 -15 -8.0720 43.6042   1
  -5   3  15 2.07517 2.03856   3
   4  -3 -15 15.9712 27.3495   1
   4  -3 -15 22.5877 26.9884   1
   3  -3 -15 10.3769 21.4959   1
   3  -3 -15 3.61224 18.4596   1
   3  -3 -15 0.55539 1.25520   2
   2  -3 -15 1.89441 1.56006   2
   2  -3 -15 6.62178 16.0980   1
   2  -3 -15 7.80876 16.1495   1
  -2   3  15 2.87383 1.35558   3
   1  -3 -15 1.17041 1.11333   2
   1  -3 -15 -7.3934 13.2635   1
   1  -3 -15 14.0328 22.0249   1
  -1   3  15 4.85136 1.42419   3
   0  -3 -15 141.628 20.0692   1
   0  -3 -15 133.701 5.29955   2
   0  -3 -15 119.558 18.9851   1
   0   3  15 142.643 21.5511   1
   0   3  15 131.371 5.03708   3
  -1  -3 -15 89.3773 4.11315   2
  -1  -3 -15 78.1335 15.3822   1
   1   3  15 93.6856 3.70861   3
   1   3  15 98.7421 18.0652   1
  -2  -3 -15 -13.986 8.67375   1
  -2  -3 -15 4.25234 1.33414   2
   2   3  15 3.53447 0.93148   3
   2   3  15 -2.3402 11.2782   1
   2   3  15 7.10301 1.60808   2
  -3  -3 -15 158.689 19.2186   1
  -3  -3 -15 143.206 5.48948   2
   3   3  15 156.338 19.8703   1
   3   3  15 143.022 5.97788   2
  -4  -3 -15 184.166 20.5597   1
   4   3  15 184.420 22.3537   1
  -5  -3 -15 21.4235 11.5613   1
   5   3  15 20.5825 13.5933   1
  -6  -3 -15 -3.6045 12.5595   1
   6   3  15 6.37137 14.3360   1
  -7  -3 -15 40.0481 15.4539   1
   7   3  15 23.0438 2.45058   2
   7   3  15 47.6067 16.2683   1
  -8  -3 -15 42.3204 18.5906   1
   8   3  15 48.6937 3.49388   2
   8   3  15 9.33909 19.6015   1
   9   3  15 46.5525 3.55102   2
  10   3  15 -2.2097 1.42686   2
   5  -4 -15 -1.4651 2.27833   2
  -5   4  15 3.38974 2.42189   3
   4  -4 -15 11.1656 29.6592   1
   4  -4 -15 24.4980 2.72658   2
   4  -4 -15 -32.001 44.3609   1
  -4   4  15 22.2904 3.31236   3
   3  -4 -15 14.1310 24.9369   1
   3  -4 -15 -3.4398 1.23077   2
   3  -4 -15 -23.177 22.9919   1
  -3   4  15 0.24578 1.55564   3
   2  -4 -15 10.5365 23.1820   1
   2  -4 -15 -5.3721 15.9804   1
   2  -4 -15 0.22095 1.28262   2
  -2   4  15 0.16962 1.39845   3
   1  -4 -15 43.8583 16.8728   1
   1  -4 -15 27.5825 16.1744   1
   1  -4 -15 29.3002 3.45194   2
  -1   4  15 22.1702 2.38973   3
   0  -4 -15 46.3782 15.1479   1
   0  -4 -15 53.6951 3.29481   2
   0  -4 -15 53.0561 16.4345   1
   0   4  15 50.7885 3.00661   3
  -1  -4 -15 17.0732 12.9138   1
  -1  -4 -15 51.1571 3.14822   2
   1   4  15 43.8747 2.60520   3
   1   4  15 64.0356 15.7079   1
  -2  -4 -15 9.30625 9.61924   1
   2   4  15 8.90739 12.3218   1
  -3  -4 -15 43.9791 12.0389   1
  -3  -4 -15 48.4914 3.06721   2
   3   4  15 60.3282 15.5301   1
  -4  -4 -15 135.577 17.3766   1
   4   4  15 140.169 18.5217   1
  -5  -4 -15 124.021 17.1718   1
   5   4  15 167.118 21.7379   1
  -6  -4 -15 -4.2064 11.3667   1
   6   4  15 -18.050 12.6081   1
   7   4  15 103.841 23.3367   1
  -8  -4 -15 20.1492 15.2652   1
   8   4  15 48.4046 19.1640   1
   8   4  15 21.3472 2.49457   2
   9   4  15 3.39310 1.60061   2
  10   4  15 1.42328 1.84885   2
   4  -5 -15 5.95340 1.91978   2
   4  -5 -15 -50.316 49.9777   1
  -4   5  15 3.95425 2.30157   3
   3  -5 -15 -4.2079 28.3408   1
   3  -5 -15 7.60738 1.75907   2
  -3   5  15 8.69319 2.46224   3
   2  -5 -15 18.4144 2.27849   2
   2  -5 -15 7.46172 22.0494   1
   2  -5 -15 8.70128 21.0669   1
  -2   5  15 15.8743 2.38334   3
   1  -5 -15 -0.0487 1.13612   2
   1  -5 -15 -1.0098 19.3859   1
   1  -5 -15 9.80985 15.1856   1
  -1   5  15 1.91436 1.31583   3
   0  -5 -15 -3.7174 13.5550   1
  -1  -5 -15 2.32149 13.2233   1
  -1  -5 -15 19.9231 11.8711   1
  -1  -5 -15 12.1997 1.77511   2
   1   5  15 19.5743 2.08145   3
  -2  -5 -15 4.51501 1.18688   2
  -2  -5 -15 -12.466 11.8832   1
  -2  -5 -15 7.13059 10.5987   1
   2   5  15 24.3180 14.3033   1
   2   5  15 4.59510 1.17178   3
  -3  -5 -15 62.4260 3.40012   2
  -3  -5 -15 34.3961 13.5885   1
  -3  -5 -15 53.2365 13.1707   1
   3   5  15 55.4384 2.48020   3
   3   5  15 45.2554 14.6183   1
  -4  -5 -15 70.5080 13.3952   1
  -4  -5 -15 83.8847 4.14789   2
   4   5  15 95.8526 17.0212   1
  -5  -5 -15 1.02210 9.90509   1
   5   5  15 -12.817 11.2022   1
  -6  -5 -15 205.105 21.2994   1
   6   5  15 186.303 22.8628   1
   7   5  15 -0.7856 14.5820   1
  -8  -5 -15 18.8796 14.1330   1
   8   5  15 26.1884 2.83651   2
   8   5  15 36.2477 31.8115   1
   9   5  15 16.9904 2.44105   2
  10   5  15 54.4171 4.32153   2
   3  -6 -15 4.96918 1.80950   2
   3  -6 -15 24.6066 39.4267   1
  -3   6  15 1.47611 1.72478   3
   2  -6 -15 9.80460 1.83505   2
   2  -6 -15 5.91092 23.5983   1
  -2   6  15 8.43637 2.22377   3
   1  -6 -15 6.55253 19.2792   1
   1  -6 -15 1.39138 1.39949   2
  -1   6  15 0.54967 1.40495   3
   0  -6 -15 16.8261 15.9771   1
   0  -6 -15 18.6133 2.32987   2
   0  -6 -15 16.4102 17.4565   1
   0   6  15 22.3811 2.58168   3
  -1  -6 -15 14.4346 17.1894   1
  -1  -6 -15 9.34788 1.78775   2
  -1  -6 -15 -0.4219 18.9958   1
   1   6  15 8.12858 1.71748   3
  -2  -6 -15 -8.1468 20.4721   1
  -2  -6 -15 -1.0903 10.7204   1
   2   6  15 0.53727 1.06302   3
  -3  -6 -15 11.9232 1.84266   2
  -3  -6 -15 19.4705 10.3924   1
  -3  -6 -15 -4.7333 10.9132   1
   3   6  15 -0.3515 13.8120   1
   3   6  15 13.8911 1.55841   3
  -4  -6 -15 -0.5729 1.07493   2
  -4  -6 -15 -3.6322 11.0431   1
  -4  -6 -15 -1.9367 9.96128   1
   4   6  15 13.4645 13.0496   1
   4   6  15 -0.8426 0.63355   3
  -5  -6 -15 11.8588 10.3605   1
  -5  -6 -15 4.30476 10.5670   1
   5   6  15 16.9150 13.5556   1
  -6  -6 -15 85.1440 13.2565   1
  -7  -6 -15 -2.4697 11.9674   1
   7   6  15 -4.3851 14.4979   1
  -8  -6 -15 0.44130 11.0616   1
   9   6  15 4.97281 1.91037   2
  10   6  15 8.71346 2.29186   2
   2  -7 -15 -38.999 41.1228   1
   1  -7 -15 -17.524 25.4801   1
   1  -7 -15 0.03516 1.39391   2
  -1   7  15 0.97407 1.74989   3
   0  -7 -15 2.67454 1.26953   2
   0   7  15 2.43169 1.56217   3
  -1  -7 -15 16.2053 17.7663   1
  -1  -7 -15 32.7434 16.0268   1
  -1  -7 -15 18.4223 2.29703   2
   1   7  15 23.8763 2.48699   3
  -2  -7 -15 0.57632 1.12209   2
  -2  -7 -15 -4.1929 12.0477   1
  -2  -7 -15 12.7866 13.8067   1
   2   7  15 -0.0988 1.11339   3
  -3  -7 -15 4.13332 1.37565   2
  -3  -7 -15 19.9045 14.3548   1
  -3  -7 -15 13.8069 12.4542   1
   3   7  15 5.78733 1.35390   3
  -4  -7 -15 39.6330 3.20325   2
  -4  -7 -15 40.4462 12.4337   1
   4   7  15 42.6352 2.27481   3
   4   7  15 57.5374 17.7442   1
  -5  -7 -15 7.93780 12.4159   1
   5   7  15 15.5805 14.8297   1
  -6  -7 -15 66.2340 10.1802   1
  -6  -7 -15 59.9084 10.5062   1
   6   7  15 92.0157 17.5536   1
   9   7  15 1.97938 1.76911   2
  10   7  15 7.07021 2.22902   2
   1  -8 -15 -1.4115 1.40365   2
  -1   8  15 -0.1440 1.60533   3
   0  -8 -15 5.28219 1.62832   2
   0  -8 -15 -8.9228 23.6340   1
   0   8  15 9.51735 2.40951   3
  -1  -8 -15 -5.2537 19.4187   1
  -1  -8 -15 1.82948 1.33645   2
   1   8  15 0.95820 1.39525   3
  -2  -8 -15 22.2450 16.8022   1
  -2  -8 -15 32.7415 2.95153   2
   2   8  15 27.8623 2.65009   3
  -3  -8 -15 -3.1108 13.9530   1
  -3  -8 -15 -2.3714 0.98279   2
  -3  -8 -15 -4.2543 12.3452   1
   3   8  15 0.16515 1.16642   3
  -4  -8 -15 -10.239 11.2066   1
  -4  -8 -15 3.16410 1.32054   2
  -4  -8 -15 3.18373 10.2885   1
   4   8  15 7.85835 1.38482   3
  -5  -8 -15 11.6546 6.90855   1
   5   8  15 19.7022 1.59761   3
   9   8  15 -3.1257 1.59725   2
  10   8  15 1.12296 1.89779   2
   0  -9 -15 -4.0516 1.32801   2
   0   9  15 -1.1665 1.62344   3
  -1  -9 -15 9.57597 33.5350   1
  -1  -9 -15 4.46900 1.69892   2
   1   9  15 8.70914 2.33156   3
  -2  -9 -15 31.6256 21.3452   1
  -2  -9 -15 15.4532 2.39995   2
   2   9  15 7.78666 1.98424   3
  -3  -9 -15 6.72509 14.5659   1
  -3  -9 -15 11.0607 1.95500   2
   3   9  15 13.5475 2.10762   3
  -4  -9 -15 29.9679 8.53583   1
  -4  -9 -15 33.6386 3.28404   2
   5   9  15 -0.4481 1.02901   3
  -2 -10 -15 9.47834 2.06844   2
   2  10  15 12.7198 2.55881   3
  -3 -10 -15 17.6634 2.64882   2
   3  10  15 17.8510 2.52461   3
  -4 -10 -15 26.3883 2.70765   2
   4  10  15 24.0585 2.62545   3
   5  10  15 0.93528 1.15451   3
   6  10  15 1.38937 1.04719   3
  -4 -11 -15 22.5956 3.66650   2
   4  11  15 24.2317 2.96286   3
   5  11  15 9.86247 1.99347   3
   6  11  15 5.82430 1.60560   3
   7  11  15 10.9170 1.56851   3
   4   8 -16 37.3197 29.7329   1
  -4  -8  16 -18.280 47.7464   1
   3   8 -16 21.0372 27.0246   1
  -3  -8  16 39.5550 24.8850   1
   2   8 -16 71.3963 31.8419   1
   1   8 -16 61.2523 29.6283   1
  -1  -8  16 44.9323 23.9620   1
   0   8 -16 21.9257 32.7097   1
   0  -8  16 31.5377 28.3671   1
  -1   8 -16 7.36745 35.2876   1
  -2   8 -16 -13.061 37.2525   1
   6   7 -16 13.6510 1.40881   2
   5   7 -16 39.9069 32.0815   1
   4   7 -16 -19.070 27.6673   1
  -4  -7  16 4.93044 22.5765   1
   3   7 -16 46.4163 27.5939   1
   2   7 -16 60.5860 23.8574   1
  -2  -7  16 33.0070 22.6832   1
   1   7 -16 19.1827 22.4507   1
  -1  -7  16 11.3774 21.5244   1
   0   7 -16 -0.8470 25.1940   1
  -1   7 -16 17.9040 27.9336   1
   1  -7  16 24.5083 24.5458   1
   2  -7  16 -36.943 26.7145   1
  -3   7 -16 -3.1607 32.4362   1
   3  -7  16 -28.091 32.8763   1
  -4   7 -16 -23.528 46.0542   1
  -7  -6  16 0.25388 2.04293   3
   6   6 -16 29.0008 35.7308   1
   6   6 -16 20.7900 2.03718   2
   5   6 -16 -6.5147 25.5428   1
   5   6 -16 1.41177 1.00460   2
  -5  -6  16 2.46350 1.06806   2
   4   6 -16 -0.6312 25.3268   1
   4   6 -16 5.87716 1.31005   2
  -4  -6  16 4.82786 0.97187   2
  -4  -6  16 8.02016 20.4512   1
   3   6 -16 -26.398 22.1337   1
  -3  -6  16 19.3017 18.8635   1
   2   6 -16 26.3385 20.0197   1
  -2  -6  16 18.4517 16.6842   1
   1   6 -16 -11.723 19.8270   1
  -1  -6  16 -11.678 28.1389   1
   0   6 -16 -5.6403 18.2072   1
   0  -6  16 7.17163 20.2846   1
  -1   6 -16 41.4523 21.8947   1
   1  -6  16 50.9158 24.5019   1
  -2   6 -16 85.6304 44.8039   1
   2  -6  16 114.116 27.1379   1
  -3   6 -16 56.2518 27.9719   1
   3  -6  16 12.2361 31.1059   1
  -4   6 -16 44.0825 32.1264   1
   4  -6  16 22.2082 34.3975   1
  -5   6 -16 66.4749 3.27960   3
  -5   6 -16 162.952 71.9372   1
   5  -6  16 -52.406 48.2458   1
   7   5 -16 -2.3695 1.27254   2
  -7  -5  16 -1.5559 1.76767   3
   6   5 -16 47.9460 2.98760   2
   6   5 -16 4.26260 29.8146   1
  -6  -5  16 47.0801 4.22993   3
   5   5 -16 29.8075 26.9129   1
   4   5 -16 30.4873 2.14740   2
   4   5 -16 45.0906 23.7680   1
  -4  -5  16 29.0441 2.00138   2
  -4  -5  16 29.2293 20.7433   1
   3   5 -16 -1.3096 20.6760   1
  -3  -5  16 5.37719 16.3055   1
   2   5 -16 11.5647 17.8958   1
  -2  -5  16 13.6351 17.2413   1
   1   5 -16 -17.279 15.3759   1
  -1  -5  16 14.0614 18.4389   1
   0   5 -16 12.4983 17.2595   1
   0  -5  16 14.1541 18.0425   1
  -1   5 -16 -0.0588 18.2811   1
   1  -5  16 8.91757 17.6287   1
  -2   5 -16 -6.3559 19.2989   1
   2  -5  16 12.4469 21.6054   1
  -3   5 -16 30.9851 22.8607   1
   3  -5  16 67.4617 26.5400   1
  -4   5 -16 45.1084 27.9762   1
   4  -5  16 107.228 38.5009   1
   4  -5  16 100.778 3.65233   2
  -5   5 -16 5.26599 1.19711   3
  -5   5 -16 -1.7521 34.6422   1
   5  -5  16 -8.0629 32.4258   1
   5  -5  16 0.71591 0.89709   2
   6  -5  16 -3.3299 46.3949   1
   7   4 -16 5.03242 1.69194   2
  -7  -4  16 5.25555 2.18016   3
   6   4 -16 14.8372 28.7056   1
   6   4 -16 -27.929 30.3799   1
  -6  -4  16 9.25017 2.39186   3
   5   4 -16 17.4972 22.6917   1
   4   4 -16 -18.580 19.0435   1
   4   4 -16 2.15140 1.03215   2
  -4  -4  16 13.2284 19.5840   1
  -4  -4  16 0.99514 1.55958   3
  -4  -4  16 0.14569 0.89880   2
   3   4 -16 -8.7575 18.6771   1
   3   4 -16 5.71544 1.20040   2
  -3  -4  16 6.43488 1.08963   2
  -3  -4  16 3.88558 1.67709   3
  -3  -4  16 16.8806 16.1051   1
   2   4 -16 31.3649 2.00822   2
   2   4 -16 17.9217 16.5633   1
  -2  -4  16 51.7679 17.8378   1
  -2  -4  16 30.3873 1.81965   2
   1   4 -16 114.034 19.5536   1
  -1  -4  16 96.7269 3.37716   2
  -1  -4  16 69.5741 18.6740   1
   0   4 -16 4.96526 14.1785   1
   0  -4  16 20.6589 15.3654   1
  -1   4 -16 61.4899 17.7282   1
   1  -4  16 77.0390 2.74829   2
   1  -4  16 74.9090 20.9911   1
  -2   4 -16 27.1764 17.8227   1
   2  -4  16 37.7820 1.92007   2
   2  -4  16 19.7043 19.5037   1
  -3   4 -16 32.3611 19.2395   1
   3  -4  16 8.51240 18.9260   1
  -4   4 -16 -56.190 19.2286   1
   4  -4  16 1.85203 0.81392   2
   4  -4  16 4.32188 0.89421   2
  -5   4 -16 22.5881 29.0448   1
   5  -4  16 37.3999 28.2320   1
  -6   4 -16 27.1026 32.8051   1
   6  -4  16 43.3442 2.50133   2
   6  -4  16 18.1832 32.5703   1
   7  -4  16 31.3302 2.48165   2
   7  -4  16 59.2204 51.9201   1
   7   3 -16 93.9044 60.2241   1
   6   3 -16 -21.943 27.6533   1
   6   3 -16 -22.117 31.4804   1
   6   3 -16 6.17963 1.57035   2
  -6  -3  16 6.88587 2.23978   3
   5   3 -16 -25.693 21.4351   1
   5   3 -16 4.26184 1.38763   2
  -5  -3  16 3.70928 2.07601   3
   4   3 -16 14.8708 19.7998   1
   4   3 -16 5.46859 1.36785   2
  -4  -3  16 6.93005 1.87579   3
   3   3 -16 -1.3022 15.7378   1
   3   3 -16 30.1580 2.21977   2
  -3  -3  16 20.6157 2.59242   3
  -3  -3  16 56.3974 18.4191   1
   2   3 -16 4.09579 1.04762   2
   2   3 -16 -0.7921 15.1652   1
  -2  -3  16 2.09086 0.85302   2
  -2  -3  16 1.74250 1.41597   3
  -2  -3  16 -2.0727 13.3103   1
   1   3 -16 81.7665 19.8589   1
   1   3 -16 88.2247 3.43271   2
  -1  -3  16 85.5066 3.33186   2
  -1  -3  16 70.1916 18.9876   1
   0   3 -16 17.7118 13.8487   1
   0  -3  16 0.80943 0.72062   2
   0  -3  16 -16.600 12.3979   1
  -1   3 -16 25.8809 14.8349   1
   1  -3  16 27.2117 17.0462   1
   1  -3  16 33.9681 1.85863   2
  -2   3 -16 6.98641 14.8317   1
   2  -3  16 -1.3437 14.7973   1
   2  -3  16 2.51440 0.79725   2
  -3   3 -16 1.42178 16.0410   1
   3  -3  16 1.17214 0.75369   2
   3  -3  16 -1.4201 0.74494   2
   3  -3  16 6.72498 18.3670   1
  -4   3 -16 129.881 26.8890   1
   4  -3  16 164.232 28.0882   1
   4  -3  16 115.470 4.24581   2
   4  -3  16 125.009 4.41016   2
  -5   3 -16 28.6219 24.3978   1
   5  -3  16 2.86890 1.11397   2
   5  -3  16 0.74720 22.9329   1
   6  -3  16 28.9827 32.6103   1
   6  -3  16 33.1423 2.37212   2
   7  -3  16 0.86959 1.06499   2
   7   2 -16 15.9502 2.55190   2
   7   2 -16 74.3659 62.8855   1
  -7  -2  16 20.3364 3.03062   3
   6   2 -16 6.42763 1.80554   2
   6   2 -16 -17.523 28.9635   1
   6   2 -16 5.04715 52.9735   1
  -6  -2  16 9.42068 2.38935   3
   5   2 -16 36.0180 28.8491   1
  -5  -2  16 39.3077 3.58974   3
   4   2 -16 -2.8539 19.3536   1
   3   2 -16 9.50629 1.46002   2
   3   2 -16 33.5263 16.2453   1
  -3  -2  16 6.75658 1.27853   2
  -3  -2  16 8.39044 17.6834   1
  -3  -2  16 13.3796 2.36376   3
   2   2 -16 1.06428 1.07549   2
   2   2 -16 -21.604 12.9761   1
  -2  -2  16 -6.4421 14.0065   1
  -2  -2  16 3.45214 1.04294   2
   1   2 -16 10.6699 13.5267   1
   1   2 -16 29.7526 2.15721   2
  -1  -2  16 27.7350 2.37872   3
  -1  -2  16 24.6711 1.89780   2
  -1  -2  16 43.1305 16.7130   1
   0   2 -16 22.7816 13.5597   1
   0   2 -16 17.1273 1.62643   2
   0  -2  16 17.7158 1.58944   2
   0  -2  16 11.7272 13.9722   1
  -1   2 -16 3.69287 13.1619   1
   1  -2  16 15.1878 14.6952   1
   1  -2  16 16.8846 1.56532   2
   2  -2  16 14.0194 13.9418   1
  -3   2 -16 104.863 19.8328   1
   3  -2  16 107.551 20.4209   1
   3  -2  16 77.8319 3.25154   2
  -4   2 -16 74.7702 19.9878   1
   4  -2  16 63.5625 3.02824   2
   4  -2  16 59.6779 2.83873   2
   4  -2  16 39.6427 19.3653   1
  -5   2 -16 -1.5536 20.0942   1
   5  -2  16 -11.091 18.3091   1
   5  -2  16 -0.2318 0.91859   2
   5  -2  16 -1.1821 0.85400   2
  -6   2 -16 -8.3539 21.7674   1
   6  -2  16 -19.369 23.5920   1
   6  -2  16 0.10545 0.96584   2
  -7   2 -16 -21.066 25.9729   1
   7  -2  16 8.06521 50.1728   1
   7  -2  16 1.20492 1.19278   2
   8  -2  16 29.1851 2.57344   2
   7   1 -16 17.6385 66.1096   1
   6   1 -16 9.89704 33.8896   1
   6   1 -16 22.7858 35.2512   1
   5   1 -16 26.0387 28.2048   1
   5   1 -16 6.65619 1.60596   2
   5   1 -16 -23.634 23.3325   1
  -5  -1  16 7.76149 2.36301   3
   4   1 -16 25.3345 22.3507   1
   4   1 -16 14.3605 19.4707   1
   4   1 -16 11.7052 1.73061   2
  -4  -1  16 11.9450 2.31322   3
   3   1 -16 26.4372 19.9739   1
   3   1 -16 -1.4451 0.96077   2
  -3  -1  16 1.70945 16.0148   1
  -3  -1  16 -2.1265 1.19664   3
   2   1 -16 14.5620 16.3836   1
   2   1 -16 4.90185 1.25096   2
  -2  -1  16 2.67727 15.8085   1
   1   1 -16 -0.5135 0.91389   2
   1   1 -16 23.0863 13.6007   1
  -1  -1  16 1.24402 1.08421   3
  -1  -1  16 -3.2523 12.4423   1
   0   1 -16 13.1103 12.3102   1
   0   1 -16 12.3005 1.54067   2
   0  -1  16 12.4721 1.66926   3
   0  -1  16 6.62260 14.4798   1
   0  -1  16 15.6014 1.61901   2
  -1   1 -16 38.8498 13.9608   1
  -1   1 -16 35.7814 2.29742   2
   1  -1  16 27.2815 1.99182   2
   1  -1  16 54.6406 15.7249   1
  -2   1 -16 0.09692 11.9999   1
   2  -1  16 15.1772 13.6162   1
   2  -1  16 1.35780 0.85465   2
  -3   1 -16 9.89152 12.3946   1
   3  -1  16 -4.8740 22.5380   1
  -4   1 -16 -2.3679 13.1403   1
   4  -1  16 3.85963 1.21529   2
   4  -1  16 11.6204 15.0519   1
  -5   1 -16 29.8931 17.0330   1
   5  -1  16 27.7751 2.32477   2
   5  -1  16 27.4015 2.15035   2
   5  -1  16 39.5433 20.4112   1
  -6   1 -16 45.6942 22.3594   1
   6  -1  16 -20.452 22.4761   1
   6  -1  16 23.7047 2.30306   2
  -7   1 -16 -0.3272 23.0947   1
   7  -1  16 10.4763 1.70538   2
   7  -1  16 33.6826 26.1566   1
   8  -1  16 4.19958 1.49585   2
   9  -1  16 1.63358 1.31866   2
   6   0 -16 0.45331 37.3463   1
   6   0 -16 -12.649 39.0956   1
   5   0 -16 12.3382 1.91884   2
   5   0 -16 21.0036 29.4743   1
   5   0 -16 -3.4187 31.2732   1
  -5   0  16 13.8050 2.54342   3
   4   0 -16 29.0404 20.7459   1
   4   0 -16 18.6322 23.5748   1
   3   0 -16 26.5425 18.7235   1
   3   0 -16 20.0875 2.09335   2
   3   0 -16 32.4649 17.2407   1
  -3   0  16 21.0144 2.74026   3
   2   0 -16 15.3909 15.0582   1
  -2   0  16 19.6113 15.9025   1
   1   0 -16 23.8563 2.25569   2
   1   0 -16 17.4744 14.9258   1
  -1   0  16 28.2338 2.35578   3
  -1   0  16 8.49858 13.7229   1
  -1   0  16 23.4947 2.06398   2
   0   0 -16 8.31567 18.7721   1
   0   0 -16 30.7081 2.34710   2
   0   0  16 32.0947 2.19999   2
   0   0  16 23.6034 2.09951   3
   0   0  16 36.8547 16.0857   1
  -1   0 -16 19.9643 1.90349   2
  -1   0 -16 2.70185 11.2561   1
   1   0  16 37.5938 14.5677   1
   1   0  16 26.4325 1.82841   3
   1   0  16 25.6508 2.23370   2
  -2   0 -16 9.09068 10.9212   1
   2   0  16 4.27665 12.8690   1
  -3   0 -16 -4.5313 11.0569   1
   3   0  16 -6.7049 12.9358   1
  -4   0 -16 76.1490 16.6958   1
   4   0  16 48.8857 17.1503   1
   4   0  16 52.0264 2.81254   2
  -5   0 -16 63.2622 19.5295   1
   5   0  16 65.2648 19.7816   1
  -6   0 -16 16.9378 19.4631   1
   6   0  16 28.8808 18.6996   1
   6   0  16 43.4076 2.93322   2
  -7   0 -16 11.7582 22.5046   1
   7   0  16 30.1018 25.4430   1
   7   0  16 14.8728 1.84454   2
   8   0  16 44.1388 34.3320   1
   9   0  16 2.44246 1.45634   2
   6  -1 -16 78.8401 4.65441   2
   6  -1 -16 96.4786 44.4320   1
   6  -1 -16 87.9399 42.0792   1
  -6   1  16 74.1391 5.41113   3
   5  -1 -16 98.1625 5.10644   2
   5  -1 -16 59.4776 33.9711   1
   5  -1 -16 108.152 36.1681   1
  -5   1  16 105.709 5.83153   3
   4  -1 -16 -0.0104 1.41202   2
   4  -1 -16 30.8592 22.9639   1
   4  -1 -16 4.93252 23.1210   1
  -4   1  16 -0.5700 1.52222   3
   3  -1 -16 -16.847 19.6442   1
   3  -1 -16 -31.635 16.3838   1
  -3   1  16 5.47396 1.78371   3
   2  -1 -16 43.9181 2.95279   2
   2  -1 -16 32.9185 17.8110   1
  -2   1  16 41.8158 3.12674   3
   1  -1 -16 0.36708 0.98090   2
   1  -1 -16 -2.4413 13.7829   1
  -1   1  16 0.40333 1.16205   3
  -1   1  16 -8.6566 14.9408   1
   0  -1 -16 11.1957 1.53847   2
   0  -1 -16 5.73539 12.1631   1
   0   1  16 16.7269 23.4237   1
   0   1  16 9.85793 1.53033   3
   0   1  16 6.93004 1.49647   2
  -1  -1 -16 81.2191 16.1826   1
  -1  -1 -16 80.6216 3.71872   2
   1   1  16 83.0022 3.34070   3
   1   1  16 80.1822 3.56722   2
   1   1  16 104.791 31.7436   1
  -2  -1 -16 4.81069 1.28423   2
  -2  -1 -16 -7.7692 10.9189   1
   2   1  16 2.57970 0.79791   3
   2   1  16 4.97609 1.08239   2
   2   1  16 9.55180 12.3398   1
  -3  -1 -16 20.7282 11.4293   1
   3   1  16 20.9857 13.3958   1
  -4  -1 -16 16.9568 12.8859   1
   4   1  16 25.6385 15.6434   1
  -5  -1 -16 8.38231 14.4154   1
   5   1  16 25.5801 15.2910   1
  -6  -1 -16 13.8015 17.2228   1
   6   1  16 19.4721 17.2760   1
   6   1  16 10.8764 1.75046   2
  -7  -1 -16 23.9537 18.4122   1
   7   1  16 -16.281 21.0484   1
   7   1  16 2.83250 1.45324   2
   8   1  16 38.7834 3.16190   2
   8   1  16 36.0289 32.5111   1
   9   1  16 1.61722 1.43201   2
   6  -2 -16 5.85051 2.06171   2
   5  -2 -16 -2.1587 33.0089   1
   5  -2 -16 -18.982 34.3375   1
   5  -2 -16 8.97541 2.13912   2
  -5   2  16 10.3374 2.62692   3
   4  -2 -16 59.8214 28.3769   1
   4  -2 -16 58.8686 26.4807   1
   4  -2 -16 95.6449 4.91934   2
  -4   2  16 96.7835 5.38420   3
   3  -2 -16 15.0388 20.2757   1
   3  -2 -16 16.7311 19.4821   1
   3  -2 -16 9.24507 1.75410   2
  -3   2  16 9.70366 2.02199   3
   2  -2 -16 33.5399 18.6010   1
   2  -2 -16 36.2475 17.7369   1
   2  -2 -16 49.0933 3.24778   2
  -2   2  16 43.5588 3.22232   3
   1  -2 -16 0.73200 13.0931   1
   1  -2 -16 8.67980 1.58871   2
  -1   2  16 7.58319 1.66297   3
  -1   2  16 3.40362 15.6816   1
   0  -2 -16 68.1262 15.9483   1
   0  -2 -16 86.8799 4.04538   2
   0   2  16 90.7685 3.93175   3
   0   2  16 70.2528 17.3264   1
  -1  -2 -16 6.10732 10.7879   1
  -1  -2 -16 1.90646 1.10461   2
   1   2  16 0.42654 0.86388   3
   1   2  16 -14.066 11.7088   1
  -2  -2 -16 9.08301 1.62860   2
  -2  -2 -16 10.5772 10.5149   1
   2   2  16 6.91103 1.03095   3
   2   2  16 10.9535 12.9357   1
  -3  -2 -16 14.1889 11.7333   1
   3   2  16 15.9731 12.1813   1
  -4  -2 -16 19.4487 13.3496   1
   4   2  16 48.4139 16.0077   1
  -5  -2 -16 -27.211 12.9062   1
   5   2  16 -9.6148 14.6953   1
  -6  -2 -16 16.2224 15.8251   1
   6   2  16 -16.850 16.9885   1
  -7  -2 -16 147.699 23.6362   1
   7   2  16 215.749 48.2504   1
   8   2  16 51.9032 26.9994   1
   8   2  16 21.7167 2.45854   2
   9   2  16 -1.3216 1.21052   2
  10   2  16 3.22771 1.87906   2
   5  -3 -16 49.8092 53.0648   1
   4  -3 -16 129.870 6.03316   2
   4  -3 -16 90.3387 31.4701   1
   4  -3 -16 153.589 37.6727   1
  -4   3  16 133.216 6.44311   3
   3  -3 -16 11.6193 23.7518   1
   3  -3 -16 21.7011 24.7904   1
   2  -3 -16 16.5132 19.2964   1
   2  -3 -16 6.64982 1.73018   2
   2  -3 -16 -14.842 18.4678   1
  -2   3  16 5.39452 1.68312   3
   1  -3 -16 10.7132 16.2269   1
   1  -3 -16 0.34043 1.24729   2
   1  -3 -16 3.22517 14.3477   1
  -1   3  16 4.04750 1.48320   3
   0  -3 -16 -5.6578 13.2636   1
   0  -3 -16 1.76755 15.3324   1
   0  -3 -16 7.11346 1.45179   2
   0   3  16 -5.3245 14.5842   1
  -1  -3 -16 108.895 18.1727   1
  -1  -3 -16 87.2403 4.15333   2
   1   3  16 90.8674 3.77252   3
   1   3  16 73.2676 17.5141   1
  -2  -3 -16 206.269 7.17906   2
  -2  -3 -16 226.710 24.1859   1
   2   3  16 202.313 6.35880   3
   2   3  16 211.976 25.4668   1
  -3  -3 -16 1.99107 9.58783   1
  -3  -3 -16 -1.3919 1.06147   2
   3   3  16 -3.7383 11.6528   1
  -4  -3 -16 36.6093 13.6427   1
   4   3  16 11.4978 12.5470   1
  -5  -3 -16 32.6285 13.4233   1
   5   3  16 58.5065 18.3180   1
  -6  -3 -16 3.92220 14.0025   1
   6   3  16 12.4037 16.5421   1
  -7  -3 -16 -12.136 16.2933   1
   7   3  16 -2.3027 21.3644   1
   8   3  16 -0.3532 1.32194   2
   9   3  16 10.9218 2.07663   2
  10   3  16 -0.5514 1.65060   2
   4  -4 -16 -6.5597 34.8047   1
   4  -4 -16 1.42950 1.73343   2
  -4   4  16 2.09408 1.81179   3
   3  -4 -16 -8.0070 27.2339   1
   3  -4 -16 4.64938 1.66558   2
   3  -4 -16 6.90769 24.4217   1
  -3   4  16 3.09893 1.99415   3
   2  -4 -16 -12.164 21.8985   1
   2  -4 -16 4.54355 20.6915   1
   2  -4 -16 9.57332 1.87898   2
  -2   4  16 9.63146 2.21416   3
   1  -4 -16 21.2078 18.3417   1
   1  -4 -16 9.75018 17.7940   1
   1  -4 -16 5.58915 1.61087   2
  -1   4  16 3.47587 1.59132   3
   0  -4 -16 7.81679 15.9369   1
   0  -4 -16 -0.2597 1.75221   2
   0  -4 -16 10.5547 13.7085   1
   0   4  16 4.46728 1.36239   3
  -1  -4 -16 5.02014 12.5720   1
   1   4  16 1.21778 1.08484   3
   1   4  16 27.3616 16.6546   1
  -2  -4 -16 39.1798 2.90354   2
  -2  -4 -16 40.6292 13.6002   1
   2   4  16 49.8630 17.1110   1
   2   4  16 39.4446 2.24041   3
  -3  -4 -16 -4.5329 10.9697   1
  -3  -4 -16 0.44381 0.95513   2
   3   4  16 16.2682 14.7852   1
  -4  -4 -16 4.53286 11.5461   1
   4   4  16 -3.4759 11.6810   1
  -5  -4 -16 -25.287 11.6674   1
   5   4  16 -1.2959 14.2624   1
  -6  -4 -16 225.349 27.8408   1
   6   4  16 212.726 26.2028   1
  -7  -4 -16 20.0442 16.1930   1
   7   4  16 53.4929 19.4898   1
   8   4  16 37.3175 3.44722   2
   9   4  16 109.106 5.53116   2
  10   4  16 7.60272 2.19611   2
   4  -5 -16 17.3477 2.54271   2
  -4   5  16 11.2061 2.50719   3
   3  -5 -16 -2.3114 1.44428   2
   3  -5 -16 -41.141 32.2832   1
  -3   5  16 -1.1842 1.66637   3
   2  -5 -16 -0.6470 1.27862   2
   2  -5 -16 -13.392 22.2365   1
  -2   5  16 -0.1577 1.55541   3
   1  -5 -16 13.8457 1.97066   2
   1  -5 -16 -8.0980 19.7142   1
   1  -5 -16 21.7667 19.8649   1
  -1   5  16 7.35777 1.82372   3
   0  -5 -16 -0.8172 1.16393   2
   0   5  16 1.42757 1.43450   3
  -1  -5 -16 70.5364 18.1399   1
  -1  -5 -16 50.5684 15.6548   1
  -1  -5 -16 67.4574 3.79319   2
   1   5  16 56.1415 3.18316   3
  -2  -5 -16 48.0918 14.8921   1
  -2  -5 -16 34.6925 15.3659   1
  -2  -5 -16 69.5953 4.39574   2
   2   5  16 42.8113 16.7405   1
   2   5  16 58.8116 2.91973   3
  -3  -5 -16 17.9455 12.9976   1
  -3  -5 -16 26.7322 2.61932   2
  -3  -5 -16 39.6423 20.0694   1
   3   5  16 31.5386 1.80962   3
   3   5  16 29.0914 14.0008   1
  -4  -5 -16 30.0464 12.7392   1
   4   5  16 59.2129 16.4249   1
  -5  -5 -16 27.8875 12.4373   1
   5   5  16 21.4717 14.4476   1
  -6  -5 -16 52.2686 21.4791   1
   6   5  16 24.5189 19.0850   1
  -7  -5 -16 7.74011 14.5624   1
   7   5  16 5.60792 17.4973   1
   9   5  16 3.15363 1.76782   2
  10   5  16 14.1312 2.44811   2
   3  -6 -16 6.62751 2.03525   2
  -3   6  16 1.49882 2.07429   3
   2  -6 -16 53.7630 4.08609   2
   2  -6 -16 17.8106 31.7053   1
  -2   6  16 64.5480 4.46256   3
   1  -6 -16 2.25443 1.35318   2
  -1   6  16 3.60021 1.68832   3
   0  -6 -16 -3.0171 19.9879   1
   0  -6 -16 13.5275 1.96145   2
   0  -6 -16 18.7711 19.5634   1
   0   6  16 24.8133 2.83770   3
  -1  -6 -16 3.85668 19.6802   1
  -1  -6 -16 23.5148 15.5382   1
  -1  -6 -16 8.36590 1.62098   2
   1   6  16 9.77923 1.75512   3
  -2  -6 -16 21.4722 13.6316   1
  -2  -6 -16 31.4402 23.8799   1
  -3  -6 -16 2.42939 1.28921   2
  -3  -6 -16 -1.5399 13.7048   1
   3   6  16 0.97927 0.90420   3
  -4  -6 -16 13.2544 13.3572   1
  -5  -6 -16 4.17677 12.4821   1
  -5  -6 -16 14.2106 13.7503   1
   5   6  16 29.0463 15.8951   1
  -6  -6 -16 -0.0380 12.3168   1
   6   6  16 18.1648 15.4350   1
  -7  -6 -16 3.25714 12.4971   1
   9   6  16 -1.8790 1.73435   2
  10   6  16 48.1710 6.51259   2
   2  -7 -16 11.3855 2.08817   2
  -2   7  16 13.2014 2.57808   3
   1  -7 -16 -3.0647 29.7127   1
   1  -7 -16 1.17094 1.63525   2
  -1   7  16 1.30917 1.71144   3
   0  -7 -16 9.62532 1.88996   2
   0   7  16 12.6156 2.43548   3
  -1  -7 -16 -8.1583 19.8517   1
  -1  -7 -16 3.48474 1.61358   2
   1   7  16 5.44505 1.75701   3
  -2  -7 -16 4.56043 1.39330   2
  -2  -7 -16 14.0426 15.6551   1
  -2  -7 -16 15.9791 25.7991   1
   2   7  16 8.41519 1.97877   3
  -3  -7 -16 6.33765 13.1138   1
  -3  -7 -16 17.0043 2.27444   2
  -3  -7 -16 16.4382 14.4844   1
   3   7  16 14.7333 1.73781   3
  -4  -7 -16 4.78845 1.66034   2
  -4  -7 -16 -3.0666 12.8138   1
  -4  -7 -16 17.1991 12.3745   1
   4   7  16 6.33837 1.16161   3
   4   7  16 18.4425 18.1529   1
  -5  -7 -16 24.4473 12.7847   1
   5   7  16 47.1620 20.7206   1
  -6  -7 -16 27.0312 10.7965   1
  -6  -7 -16 42.9329 12.3053   1
  -7  -7 -16 21.1565 8.11175   1
  -7  -7 -16 20.0153 8.54916   1
   9   7  16 2.31826 1.90678   2
  10   7  16 3.19031 2.15586   2
   1  -8 -16 69.2309 4.50704   2
  -1   8  16 74.7493 4.97877   3
   0  -8 -16 11.3203 28.2850   1
  -1  -8 -16 27.9882 23.9986   1
  -1  -8 -16 14.7010 2.54694   2
  -2  -8 -16 10.1051 19.3474   1
  -2  -8 -16 2.26530 1.41505   2
   2   8  16 -1.0571 1.20100   3
  -3  -8 -16 1.02906 1.22655   2
   3   8  16 1.22793 1.34487   3
  -4  -8 -16 4.53577 1.50006   2
  -4  -8 -16 -1.3776 12.9197   1
   4   8  16 7.04920 1.41767   3
  -5  -8 -16 -11.327 9.83777   1
  -5  -8 -16 -8.7797 10.3713   1
  -1  -9 -16 44.2544 5.05460   2
   1   9  16 60.4980 4.31287   3
  -2  -9 -16 35.5670 22.2186   1
  -2  -9 -16 14.4286 2.38938   2
   2   9  16 20.2092 2.69332   3
  -3  -9 -16 5.51734 1.87868   2
  -3  -9 -16 -7.0859 17.0988   1
   3   9  16 0.46362 1.28827   3
  -4  -9 -16 -0.2053 1.50773   2
   4   9  16 3.97806 1.40995   3
   5   9  16 2.59478 1.19036   3
  -3 -10 -16 0.36022 2.44618   2
   3  10  16 -1.0570 1.41082   3
  -4 -10 -16 35.2904 3.41713   2
   4  10  16 30.9544 2.86760   3
   5  10  16 25.1087 2.37625   3
   2   8 -17 96.0115 37.2485   1
   1   8 -17 61.9129 34.2866   1
  -1  -8  17 91.3646 36.8015   1
   0   8 -17 30.7125 38.4508   1
   6   7 -17 -0.9332 1.44490   2
   4   7 -17 -9.3281 30.0393   1
   3   7 -17 67.6729 31.9884   1
  -3  -7  17 12.1293 22.2678   1
   2   7 -17 -8.7564 28.8554   1
  -2  -7  17 52.1960 23.7636   1
   1   7 -17 200.398 33.1780   1
  -1  -7  17 202.916 33.3265   1
   0   7 -17 -10.205 30.4820   1
   0  -7  17 13.2718 24.1461   1
  -1   7 -17 10.2447 52.1042   1
   1  -7  17 57.6580 32.7785   1
  -2   7 -17 91.5678 35.2937   1
   2  -7  17 34.5165 37.0064   1
  -3   7 -17 13.6427 40.4505   1
   6   6 -17 -0.1696 1.08741   2
   5   6 -17 17.3334 1.57100   2
   5   6 -17 35.6726 33.1282   1
   4   6 -17 7.09675 26.9800   1
  -4  -6  17 4.84574 1.06324   2
  -4  -6  17 36.9000 25.6053   1
   3   6 -17 28.6385 28.4630   1
  -3  -6  17 6.45986 20.2570   1
   2   6 -17 19.2055 25.1415   1
  -2  -6  17 23.3503 38.0179   1
   1   6 -17 17.2785 21.6165   1
  -1  -6  17 14.7206 21.3763   1
   0   6 -17 -4.2376 22.6276   1
   0  -6  17 -11.204 22.6369   1
  -1   6 -17 48.5486 26.1172   1
   1  -6  17 26.0614 24.7466   1
  -2   6 -17 -17.744 27.5782   1
   2  -6  17 30.4819 26.8425   1
  -3   6 -17 17.4834 31.2012   1
   3  -6  17 -19.214 34.8776   1
  -4   6 -17 43.8137 38.6401   1
   4  -6  17 79.7810 45.4109   1
  -5   6 -17 9.10180 57.7976   1
   6   5 -17 9.11043 1.71187   2
  -6  -5  17 8.73541 2.59770   3
   5   5 -17 1.90720 1.06747   2
   5   5 -17 8.13087 28.6416   1
  -5  -5  17 2.58924 2.05559   3
   4   5 -17 33.6911 24.7985   1
   4   5 -17 11.2067 1.41064   2
  -4  -5  17 -20.661 26.6713   1
  -4  -5  17 12.1931 1.41891   2
   3   5 -17 21.1144 22.7333   1
   3   5 -17 18.1706 1.72095   2
  -3  -5  17 18.8877 1.55453   2
  -3  -5  17 25.8715 21.9842   1
   2   5 -17 -8.5396 19.7022   1
  -2  -5  17 18.9630 18.2989   1
  -2  -5  17 6.88139 1.05046   2
   1   5 -17 11.7762 18.4188   1
  -1  -5  17 49.1886 19.8315   1
   0   5 -17 -10.372 19.3263   1
   0  -5  17 16.1412 20.0451   1
  -1   5 -17 21.0429 22.0771   1
   1  -5  17 -5.2088 22.3418   1
  -2   5 -17 72.1228 25.5385   1
   2  -5  17 45.8261 24.4676   1
  -3   5 -17 -31.811 24.4575   1
   3  -5  17 4.23528 29.2596   1
  -4   5 -17 40.8745 33.8059   1
   4  -5  17 5.10698 34.3331   1
  -5   5 -17 64.8467 39.4521   1
   5  -5  17 86.0932 3.21495   2
   5  -5  17 69.2049 38.8198   1
   6   4 -17 -62.886 39.3883   1
   5   4 -17 1.52951 1.11068   2
   5   4 -17 -17.775 27.0215   1
  -5  -4  17 0.85994 1.77904   3
   4   4 -17 1.15344 1.08448   2
   4   4 -17 -45.559 21.8425   1
  -4  -4  17 2.91845 1.19886   2
  -4  -4  17 0.98758 1.58554   3
  -4  -4  17 7.13091 23.4753   1
   3   4 -17 2.38779 19.3772   1
   3   4 -17 9.71542 1.36752   2
  -3  -4  17 8.97032 1.19366   2
  -3  -4  17 15.2086 18.3447   1
  -3  -4  17 11.7938 2.21424   3
   2   4 -17 8.85800 1.26964   2
   2   4 -17 -14.104 17.3570   1
  -2  -4  17 8.63638 1.16729   2
  -2  -4  17 4.96567 17.5525   1
   1   4 -17 37.0108 18.1964   1
  -1  -4  17 23.4382 1.62893   2
  -1  -4  17 32.5087 18.5337   1
   0   4 -17 52.5337 18.5965   1
   0  -4  17 19.1388 18.3386   1
   0  -4  17 33.7267 1.78210   2
  -1   4 -17 -26.065 16.0906   1
   1  -4  17 3.77042 0.79797   2
   1  -4  17 4.02166 18.0937   1
  -2   4 -17 -30.454 18.2077   1
   2  -4  17 -0.2255 20.4568   1
  -3   4 -17 -2.7535 23.4145   1
   3  -4  17 4.90579 0.87370   2
   3  -4  17 16.6997 22.3239   1
  -4   4 -17 23.7458 25.5762   1
   4  -4  17 26.0400 27.0645   1
   5  -4  17 -23.577 29.2752   1
   5  -4  17 -1.1661 1.31857   2
   5  -4  17 0.86828 0.88307   2
   6  -4  17 3.54001 43.4357   1
   6   3 -17 -11.280 37.6552   1
   6   3 -17 9.08228 1.86596   2
  -6  -3  17 9.35416 2.42581   3
  -5  -3  17 0.52911 1.69543   3
   4   3 -17 7.45368 22.0410   1
   4   3 -17 -0.8312 1.03654   2
  -4  -3  17 2.58330 1.71213   3
   3   3 -17 39.9839 20.2305   1
   3   3 -17 25.9263 2.31986   2
  -3  -3  17 33.2457 2.22045   2
  -3  -3  17 35.1245 3.15776   3
  -3  -3  17 16.9074 20.2584   1
   2   3 -17 -11.014 16.6171   1
   2   3 -17 0.16553 0.98155   2
  -2  -3  17 -23.802 16.8792   1
  -2  -3  17 1.87303 1.38341   3
  -2  -3  17 0.74280 0.91614   2
   1   3 -17 186.639 25.3302   1
   1   3 -17 195.364 6.20232   2
  -1  -3  17 177.213 26.1496   1
  -1  -3  17 192.639 6.13501   2
   0   3 -17 -1.1244 15.2786   1
   0  -3  17 5.94492 1.01980   2
   0  -3  17 6.30232 17.8207   1
   1  -3  17 130.033 4.34977   2
   1  -3  17 86.4079 21.0810   1
  -2   3 -17 -1.2130 16.1080   1
   2  -3  17 -0.3966 0.65285   2
   2  -3  17 2.85208 18.3487   1
  -3   3 -17 8.46487 17.7906   1
   3  -3  17 20.2059 38.5612   1
  -4   3 -17 89.8049 24.3880   1
   4  -3  17 21.9276 23.8658   1
   4  -3  17 62.7864 2.88139   2
   4  -3  17 55.8782 2.66221   2
  -5   3 -17 6.35768 24.8207   1
   5  -3  17 -0.8663 1.00967   2
   5  -3  17 0.58220 0.99428   2
   5  -3  17 0.70603 25.5023   1
  -6   3 -17 27.4257 33.8611   1
   6  -3  17 -5.3083 33.8294   1
   6  -3  17 -1.4711 0.90385   2
   7  -3  17 3.32043 40.6249   1
   6   2 -17 11.2574 34.7734   1
   6   2 -17 31.2002 38.8828   1
   5   2 -17 13.7375 30.4991   1
   5   2 -17 18.9430 26.4283   1
   4   2 -17 0.82020 1.09298   2
   4   2 -17 -26.548 23.8980   1
  -4  -2  17 0.80749 1.51024   3
  -3  -2  17 22.7885 20.7958   1
   2   2 -17 -2.3133 0.86347   2
   2   2 -17 -10.202 19.0803   1
  -2  -2  17 13.0934 16.9300   1
  -2  -2  17 1.02137 1.29744   3
  -2  -2  17 0.28163 0.89657   2
   1   2 -17 0.10757 0.97413   2
   1   2 -17 -23.864 17.1055   1
  -1  -2  17 0.99004 1.30758   3
  -1  -2  17 0.16020 0.97584   2
  -1  -2  17 -10.466 14.8749   1
   0   2 -17 26.8096 2.13144   2
   0  -2  17 8.38155 16.1153   1
   0  -2  17 28.9119 1.98455   2
  -1   2 -17 -16.658 13.2956   1
   1  -2  17 10.3726 14.3327   1
  -2   2 -17 10.0515 14.3196   1
   2  -2  17 -3.7167 15.5495   1
   2  -2  17 2.55156 0.87897   2
  -3   2 -17 71.9967 20.7273   1
   3  -2  17 66.6890 2.99067   2
   3  -2  17 89.2000 21.8501   1
  -4   2 -17 19.1456 17.6786   1
   4  -2  17 27.6101 19.8999   1
  -5   2 -17 1.77445 20.8887   1
   5  -2  17 1.67459 1.15013   2
   5  -2  17 5.03599 1.24656   2
   5  -2  17 4.59499 22.7183   1
  -6   2 -17 81.4932 27.9125   1
   6  -2  17 88.2072 3.91057   2
   6  -2  17 55.6811 28.2272   1
   7  -2  17 -4.3010 37.3201   1
   8  -2  17 3.03831 1.38210   2
   6   1 -17 41.1959 43.3579   1
   6   1 -17 8.50596 37.2063   1
   5   1 -17 3.16194 1.57143   2
   5   1 -17 -9.9781 31.0229   1
   5   1 -17 23.5891 36.0127   1
  -5  -1  17 4.31168 2.30382   3
   4   1 -17 27.2915 27.6561   1
   4   1 -17 10.3132 25.6017   1
   3   1 -17 21.0498 20.5524   1
   3   1 -17 22.0312 2.34689   2
  -3  -1  17 26.6637 2.86935   3
   2   1 -17 33.9642 19.5645   1
   2   1 -17 36.4687 2.60370   2
  -2  -1  17 20.9098 19.2940   1
  -2  -1  17 31.8693 2.77815   3
   1   1 -17 67.3581 18.0705   1
   1   1 -17 97.6605 4.08482   2
  -1  -1  17 90.6918 4.23311   3
  -1  -1  17 88.9447 19.1757   1
  -1  -1  17 91.1120 3.85944   2
   0   1 -17 1.05797 1.00099   2
   0   1 -17 -21.289 13.6269   1
   0  -1  17 0.61289 1.13054   3
   0  -1  17 -0.4030 15.0710   1
   0  -1  17 1.62853 1.06837   2
  -1   1 -17 40.3735 2.54787   2
  -1   1 -17 36.6591 15.3057   1
   1  -1  17 39.1259 2.56677   2
   1  -1  17 27.0807 15.1648   1
  -2   1 -17 32.0518 14.1442   1
   2  -1  17 28.9008 2.01147   2
  -3   1 -17 6.76694 14.6951   1
   3  -1  17 38.9736 17.7003   1
  -4   1 -17 41.2214 17.4289   1
   4  -1  17 32.8564 2.23481   2
   4  -1  17 41.3532 19.4281   1
  -5   1 -17 11.7320 19.0789   1
   5  -1  17 13.8120 1.71116   2
   5  -1  17 20.4148 22.6624   1
  -6   1 -17 32.9441 27.4624   1
   6  -1  17 80.5865 29.2514   1
   6  -1  17 61.3844 3.33578   2
   7  -1  17 1.86596 1.94829   2
   7  -1  17 -7.4099 32.0211   1
   8  -1  17 10.3915 1.84372   2
   6   0 -17 58.9234 43.6520   1
   5   0 -17 3.23337 1.61033   2
   5   0 -17 -24.641 30.0540   1
   5   0 -17 -23.790 32.1445   1
  -5   0  17 -0.4609 1.68783   3
   4   0 -17 17.7667 2.17152   2
   4   0 -17 35.0215 27.3917   1
   4   0 -17 21.9389 24.0786   1
  -4   0  17 21.9588 3.07118   3
   3   0 -17 -11.578 21.1404   1
   3   0 -17 0.40545 19.6052   1
   2   0 -17 -12.433 18.1489   1
   2   0 -17 3.03046 1.24730   2
  -2   0  17 1.60831 1.32547   3
  -2   0  17 0.07926 17.9341   1
   1   0 -17 55.2912 17.0502   1
   1   0 -17 24.0598 2.28385   2
  -1   0  17 20.8668 2.26819   3
  -1   0  17 28.8639 17.5995   1
   0   0 -17 5.45652 1.29394   2
   0   0 -17 -7.1499 14.2560   1
   0   0  17 3.75399 1.27099   3
   0   0  17 -3.9802 17.0237   1
   0   0  17 6.64008 1.43475   2
  -1   0 -17 3.53153 1.16472   2
  -1   0 -17 7.05282 12.9257   1
   1   0  17 -2.5062 15.5612   1
   1   0  17 2.69738 1.03469   3
   1   0  17 2.26936 1.05915   2
  -2   0 -17 70.9573 17.5934   1
   2   0  17 52.2578 2.79045   2
   2   0  17 21.0942 14.9380   1
  -3   0 -17 9.81905 13.3721   1
   3   0  17 69.9382 19.2943   1
   3   0  17 41.3816 2.45262   2
  -4   0 -17 38.1623 16.2783   1
   4   0  17 34.0574 3.63262   2
   4   0  17 55.8939 18.8867   1
  -5   0 -17 25.6273 17.4421   1
   5   0  17 33.1813 19.2574   1
   6   0  17 -1.1349 1.08604   2
   6   0  17 3.23547 23.3046   1
  -7   0 -17 9.90872 39.1596   1
   7   0  17 -2.2491 24.9753   1
   8   0  17 -0.0979 1.30550   2
   9   0  17 -1.9396 1.39187   2
   5  -1 -17 43.7101 38.2327   1
   5  -1 -17 19.1962 40.2288   1
   4  -1 -17 18.4700 26.1632   1
   4  -1 -17 36.6465 3.18827   2
   4  -1 -17 37.7016 30.5781   1
  -4   1  17 23.4739 2.99303   3
   3  -1 -17 54.5865 27.4986   1
   3  -1 -17 38.2205 22.1532   1
   3  -1 -17 42.6187 3.25212   2
  -3   1  17 44.0678 3.55145   3
   2  -1 -17 92.9605 22.2369   1
   2  -1 -17 113.062 5.03316   2
   2  -1 -17 110.139 23.7633   1
  -2   1  17 116.440 5.24887   3
   1  -1 -17 2.74514 15.0006   1
   1  -1 -17 8.15455 1.51721   2
  -1   1  17 -0.2377 16.4321   1
  -1   1  17 12.2697 2.01810   3
   0  -1 -17 40.1452 17.2555   1
   0  -1 -17 79.6912 3.73886   2
   0   1  17 70.7109 3.47352   3
   0   1  17 83.1364 19.6605   1
  -1  -1 -17 -16.218 12.5108   1
  -1  -1 -17 4.78540 1.39136   2
   1   1  17 -2.6396 15.5054   1
  -2  -1 -17 8.85699 1.53438   2
  -2  -1 -17 15.6286 14.1291   1
   2   1  17 12.8795 14.4792   1
  -3  -1 -17 6.86726 12.2664   1
   3   1  17 16.4901 15.9755   1
  -4  -1 -17 1.39973 14.3146   1
   4   1  17 16.5281 17.2766   1
  -5  -1 -17 2.91899 16.4226   1
   5   1  17 12.1011 16.5939   1
  -6  -1 -17 68.3193 31.5144   1
   6   1  17 73.5992 23.0020   1
   6   1  17 78.0337 4.01976   2
  -7  -1 -17 13.1093 21.9680   1
   7   1  17 16.5436 23.6877   1
   8   1  17 2.88025 1.50145   2
   9   1  17 5.02517 1.82148   2
   5  -2 -17 -69.157 45.4902   1
   5  -2 -17 3.76414 1.88932   2
  -5   2  17 2.78926 2.14773   3
   4  -2 -17 -15.531 31.9348   1
   4  -2 -17 5.61702 1.77260   2
   4  -2 -17 24.2318 29.1129   1
  -4   2  17 1.96047 1.93560   3
   3  -2 -17 18.2151 25.2403   1
   3  -2 -17 49.3918 24.3169   1
   3  -2 -17 38.8867 3.28417   2
  -3   2  17 44.7406 3.63774   3
   2  -2 -17 -11.993 18.4265   1
   2  -2 -17 -0.2928 1.05731   2
   2  -2 -17 -12.722 22.0930   1
  -2   2  17 0.47142 1.41082   3
   1  -2 -17 13.5500 1.96138   2
   1  -2 -17 14.9105 17.3059   1
   1  -2 -17 32.4782 17.9245   1
  -1   2  17 3.11220 20.3295   1
  -1   2  17 9.86543 1.77859   3
   0  -2 -17 121.904 5.00357   2
   0  -2 -17 84.9016 18.6202   1
   0   2  17 115.802 4.75591   3
   0   2  17 111.197 21.8100   1
  -1  -2 -17 0.56853 0.95385   2
  -1  -2 -17 -12.312 13.6097   1
   1   2  17 12.4793 14.8032   1
   1   2  17 0.54536 0.86196   3
  -2  -2 -17 6.68038 11.7353   1
  -2  -2 -17 -0.6581 0.98345   2
   2   2  17 -10.241 13.4937   1
   2   2  17 0.62372 0.74475   3
  -3  -2 -17 2.76313 12.3799   1
   3   2  17 4.92087 13.5227   1
  -4  -2 -17 -1.3782 13.6805   1
   4   2  17 -4.2679 15.9995   1
  -5  -2 -17 8.55304 13.4557   1
   5   2  17 8.50209 16.0879   1
  -6  -2 -17 0.41396 19.6087   1
   6   2  17 -7.0126 19.4841   1
  -7  -2 -17 -8.3871 19.7777   1
   7   2  17 -2.7539 20.6031   1
   8   2  17 8.12274 1.90325   2
   9   2  17 1.55687 1.69213   2
   4  -3 -17 5.60989 39.2275   1
   4  -3 -17 -0.2064 1.73096   2
  -4   3  17 1.45878 1.97218   3
   3  -3 -17 4.56202 27.5109   1
   3  -3 -17 33.2140 30.0966   1
  -3   3  17 1.93246 1.81069   3
   2  -3 -17 13.2127 1.87594   2
   2  -3 -17 7.87298 24.2507   1
  -2   3  17 16.8658 2.54375   3
   1  -3 -17 58.6342 20.8537   1
   1  -3 -17 20.3778 17.7436   1
   1  -3 -17 30.8628 2.82590   2
  -1   3  17 29.1499 2.74145   3
   0  -3 -17 39.4995 17.2074   1
   0  -3 -17 33.0950 16.4096   1
   0  -3 -17 37.9195 3.79430   2
   0   3  17 60.1766 21.4390   1
   0   3  17 49.4276 3.03460   3
  -1  -3 -17 -13.743 13.7290   1
  -1  -3 -17 -0.2288 1.11338   2
   1   3  17 0.36707 15.2663   1
   1   3  17 -2.0960 0.90371   3
  -2  -3 -17 -10.331 14.2246   1
  -2  -3 -17 14.6741 1.90298   2
   2   3  17 5.92140 14.3930   1
  -3  -3 -17 21.4754 2.08257   2
  -3  -3 -17 18.5343 13.3633   1
   3   3  17 21.6819 14.7399   1
  -4  -3 -17 -0.3150 12.9351   1
   4   3  17 -19.212 14.5493   1
  -5  -3 -17 -1.1702 14.5789   1
   5   3  17 23.2914 17.9066   1
  -6  -3 -17 6.58106 15.5274   1
  -7  -3 -17 27.6339 23.3660   1
   7   3  17 21.2161 19.7813   1
   8   3  17 43.8586 3.45913   2
   9   3  17 3.49314 1.70630   2
   4  -4 -17 2.53279 1.84368   2
  -4   4  17 1.52969 2.01070   3
   3  -4 -17 0.02418 1.60480   2
   3  -4 -17 -18.928 33.0865   1
  -3   4  17 2.90225 1.87249   3
   2  -4 -17 32.5211 23.0199   1
   2  -4 -17 18.4008 2.16806   2
   2  -4 -17 65.4845 27.3919   1
  -2   4  17 21.8947 2.72275   3
   1  -4 -17 18.4940 2.32887   2
   1  -4 -17 -0.5176 21.3051   1
   1  -4 -17 20.5465 19.3364   1
  -1   4  17 16.4485 2.30144   3
   0  -4 -17 59.5067 18.5876   1
   0  -4 -17 59.3110 3.66085   2
   0   4  17 59.4149 3.46020   3
  -1  -4 -17 0.65352 14.7632   1
   1   4  17 -13.216 18.8267   1
  -2  -4 -17 41.6455 3.57704   2
  -2  -4 -17 11.3958 13.9272   1
   2   4  17 31.3141 18.3394   1
   2   4  17 36.0167 2.20615   3
  -3  -4 -17 6.33858 12.9736   1
  -3  -4 -17 19.1010 2.28700   2
   3   4  17 12.6961 14.5800   1
  -4  -4 -17 -3.1167 12.5549   1
   4   4  17 -10.239 15.4580   1
   5   4  17 8.55292 16.7750   1
  -6  -4 -17 2.68832 14.8348   1
   6   4  17 55.4014 19.8320   1
   8   4  17 24.9615 2.84782   2
   9   4  17 11.2713 2.46882   2
  10   4  17 16.1886 3.46202   2
  -3   5  17 58.4082 4.53014   3
   2  -5 -17 36.9603 30.9990   1
   2  -5 -17 48.8518 3.87279   2
  -2   5  17 57.2271 4.14289   3
   1  -5 -17 -24.298 23.9691   1
   0  -5 -17 20.0404 19.7703   1
   0  -5 -17 6.28879 1.60385   2
   0   5  17 10.7155 1.87184   3
  -1  -5 -17 15.9313 18.2622   1
  -1  -5 -17 16.5413 16.1909   1
  -1  -5 -17 19.0419 2.39055   2
   1   5  17 16.4577 2.05446   3
  -2  -5 -17 2.38758 1.48786   2
  -2  -5 -17 21.1015 14.8506   1
  -2  -5 -17 -16.355 15.2543   1
   2   5  17 2.23280 1.02864   3
   2   5  17 -26.734 21.5679   1
  -3  -5 -17 0.99496 1.28461   2
  -3  -5 -17 1.65053 18.8017   1
  -3  -5 -17 -13.253 19.3148   1
   3   5  17 -2.6756 19.1750   1
   3   5  17 2.85168 0.87056   3
  -4  -5 -17 62.2584 15.7573   1
  -5  -5 -17 -17.492 12.8699   1
   5   5  17 -36.676 15.3650   1
  -6  -5 -17 58.3896 16.6918   1
   6   5  17 74.7603 19.9263   1
   9   5  17 7.00508 2.02965   2
  10   5  17 -0.1139 1.98751   2
   2  -6 -17 -1.0856 2.25120   2
  -2   6  17 -0.1178 1.94078   3
   1  -6 -17 2.66491 1.81324   2
  -1   6  17 1.19319 1.65241   3
   0  -6 -17 21.2108 2.31682   2
   0  -6 -17 21.2330 23.6986   1
   0   6  17 27.9323 2.82438   3
  -1  -6 -17 3.96203 1.51039   2
   1   6  17 8.38730 1.70243   3
  -2  -6 -17 53.3416 3.50275   2
  -2  -6 -17 20.5629 17.2464   1
  -2  -6 -17 20.8040 19.9741   1
   2   6  17 46.1098 2.80409   3
  -3  -6 -17 1.40189 14.1238   1
  -3  -6 -17 -12.463 15.8018   1
  -3  -6 -17 5.10804 1.48408   2
   3   6  17 6.98666 1.22693   3
   3   6  17 8.99647 18.0026   1
  -4  -6 -17 17.6325 15.5163   1
  -4  -6 -17 -10.441 13.3201   1
   4   6  17 23.8941 18.2644   1
  -5  -6 -17 22.3035 14.6403   1
  -5  -6 -17 2.41346 13.9604   1
   5   6  17 8.22891 20.2835   1
  -6  -6 -17 36.1777 24.6355   1
   9   6  17 1.80822 1.91782   2
  10   6  17 19.4006 2.74314   2
   1  -7 -17 75.4157 5.83234   2
  -1   7  17 92.2888 5.22015   3
   0  -7 -17 56.7363 4.13936   2
   0   7  17 59.0945 4.01759   3
  -1  -7 -17 1.98987 1.41597   2
  -1  -7 -17 -3.4009 23.8862   1
   1   7  17 1.73012 1.49102   3
  -2  -7 -17 1.73495 19.6313   1
  -2  -7 -17 2.73757 1.46104   2
   2   7  17 7.85330 1.60457   3
  -3  -7 -17 18.5498 2.40049   2
  -3  -7 -17 -14.383 17.0149   1
  -4  -7 -17 4.90539 15.5971   1
  -4  -7 -17 1.60806 1.42761   2
   4   7  17 2.56041 0.96484   3
  -6  -7 -17 3.02781 12.6391   1
  -7  -7 -17 0.66222 12.6279   1
   9   7  17 9.91121 3.25925   2
   0  -8 -17 8.26064 2.13673   2
   0   8  17 7.21206 2.22252   3
  -1  -8 -17 -8.2427 28.5648   1
  -1  -8 -17 11.7996 2.04662   2
   1   8  17 19.2858 2.62358   3
  -2  -8 -17 23.4427 23.3679   1
  -2  -8 -17 7.25313 1.91992   2
   2   8  17 13.8683 2.24940   3
  -3  -8 -17 4.02619 1.67571   2
   3   8  17 6.15386 1.56371   3
  -4  -8 -17 32.2221 17.0625   1
  -4  -8 -17 41.6486 3.45256   2
   4   8  17 38.9599 2.42695   3
  -5  -8 -17 21.4368 12.9948   1
  -2  -9 -17 1.17551 2.27527   2
  -2  -9 -17 -24.401 27.7903   1
   2   9  17 3.59618 1.87480   3
  -3  -9 -17 18.1631 21.5562   1
  -4  -9 -17 40.2800 3.57021   2
   4   9  17 39.9651 2.80192   3
   5   9  17 7.41016 1.27804   3
   5  10  17 20.5057 2.11239   3
   3   7 -18 49.0006 38.3197   1
   2   7 -18 43.3852 32.1482   1
  -2  -7  18 24.5290 31.2641   1
   1   7 -18 -1.7484 34.6363   1
  -1  -7  18 29.1878 50.0336   1
   0  -7  18 31.4532 35.7542   1
  -1   7 -18 56.5353 40.7749   1
   1  -7  18 77.4013 42.5827   1
  -2   7 -18 -14.586 40.2887   1
   5   6 -18 4.92496 1.17408   2
   4   6 -18 52.4992 38.0726   1
  -4  -6  18 53.0821 34.7163   1
   3   6 -18 28.0850 31.7090   1
  -3  -6  18 -6.6569 31.8650   1
   2   6 -18 -30.006 29.8291   1
  -2  -6  18 68.0958 28.5920   1
   1   6 -18 14.4850 29.1237   1
  -1  -6  18 37.9100 26.2653   1
   0  -6  18 145.573 30.6749   1
  -1   6 -18 77.1568 30.9748   1
   1  -6  18 65.3689 33.0917   1
  -2   6 -18 5.83988 31.9687   1
   2  -6  18 25.3102 38.1505   1
  -3   6 -18 24.2709 37.6426   1
   3  -6  18 15.0455 45.3348   1
  -4   6 -18 -2.6833 48.8947   1
   5   5 -18 53.7834 36.2011   1
   4   5 -18 44.7979 30.0110   1
  -4  -5  18 27.0458 29.9792   1
  -3  -5  18 -24.262 25.1867   1
   2   5 -18 46.9433 24.6416   1
  -2  -5  18 50.4506 2.20241   2
  -2  -5  18 53.5771 23.8909   1
   1   5 -18 -6.6405 21.4362   1
  -1  -5  18 -32.713 21.9160   1
   0  -5  18 -15.375 21.8195   1
  -1   5 -18 52.1954 24.7193   1
   1  -5  18 50.3946 25.9326   1
  -2   5 -18 11.4828 26.6532   1
   2  -5  18 18.1657 27.6424   1
  -3   5 -18 72.3132 33.1295   1
   3  -5  18 43.3069 50.3546   1
  -4   5 -18 65.9683 65.2942   1
   4  -5  18 -11.275 40.7844   1
   5  -5  18 -0.0898 50.0108   1
   6   4 -18 -0.6256 1.20218   2
  -6  -4  18 1.07353 1.99864   3
   5   4 -18 38.0195 33.5555   1
  -5  -4  18 15.2980 2.94423   3
   4   4 -18 1.30350 1.11756   2
  -4  -4  18 1.43182 1.76415   3
   3   4 -18 73.5076 3.25350   2
   3   4 -18 20.3347 24.8886   1
  -3  -4  18 49.0466 26.3723   1
  -3  -4  18 65.1914 3.09695   2
   2   4 -18 -23.106 20.8615   1
  -2  -4  18 -10.409 22.1548   1
  -1  -4  18 31.5948 1.88201   2
  -1  -4  18 37.5533 22.8594   1
   0   4 -18 14.3522 23.0724   1
   0  -4  18 13.5253 1.23202   2
   0  -4  18 29.9703 23.4203   1
  -1   4 -18 17.9942 19.6335   1
   1  -4  18 36.8136 21.5355   1
   1  -4  18 16.9238 1.44945   2
  -2   4 -18 50.1277 23.5383   1
   2  -4  18 19.6814 24.3022   1
   2  -4  18 20.4749 2.32511   2
   2  -4  18 15.1602 1.42382   2
  -3   4 -18 68.6917 28.8792   1
   3  -4  18 21.4174 1.71839   2
   3  -4  18 25.4767 1.70275   2
   3  -4  18 40.9176 27.3022   1
  -4   4 -18 -10.728 27.7923   1
   4  -4  18 12.1967 1.28418   2
   4  -4  18 6.41122 1.18327   2
   4  -4  18 55.8019 30.7912   1
  -5   4 -18 -3.8540 33.8286   1
   5  -4  18 -16.646 35.5849   1
   6  -4  18 2.64011 84.9309   1
   6   3 -18 0.68418 1.47080   2
  -6  -3  18 0.16231 2.03589   3
   5   3 -18 80.2762 37.1182   1
   5   3 -18 16.2265 35.7104   1
   4   3 -18 8.65494 1.61661   2
   4   3 -18 36.5270 27.0339   1
  -4  -3  18 12.0020 2.44184   3
   3   3 -18 24.9315 2.17617   2
   3   3 -18 39.6687 24.1337   1
  -3  -3  18 39.4415 24.8534   1
  -3  -3  18 21.1712 2.76865   3
   2   3 -18 35.1112 20.1838   1
   2   3 -18 0.40442 0.99650   2
  -2  -3  18 1.44867 0.91328   2
  -2  -3  18 -8.0112 18.9857   1
  -2  -3  18 1.69431 1.48911   3
   1   3 -18 8.55577 1.39351   2
   1   3 -18 10.4728 19.9970   1
  -1  -3  18 8.00734 1.25322   2
  -1  -3  18 -19.310 17.9520   1
   0   3 -18 -10.436 19.5815   1
   0  -3  18 9.74425 1.20317   2
   0  -3  18 11.6055 21.1315   1
  -1   3 -18 18.4641 18.4446   1
   1  -3  18 21.5026 1.69337   2
   1  -3  18 20.4509 19.8964   1
  -2   3 -18 27.5457 19.6470   1
   2  -3  18 24.8254 1.78083   2
   2  -3  18 71.2258 29.4661   1
  -3   3 -18 245.137 31.9774   1
   3  -3  18 277.798 34.5754   1
   3  -3  18 242.303 7.64935   2
   3  -3  18 268.424 7.86645   2
  -4   3 -18 -5.9323 27.3424   1
   4  -3  18 -2.4810 27.8602   1
  -5   3 -18 34.8360 30.3875   1
   5  -3  18 0.82357 1.37382   2
   5  -3  18 -6.8177 30.0524   1
   5  -3  18 3.89319 1.11236   2
   6  -3  18 3.87273 1.18974   2
   6   2 -18 2.66459 1.76239   2
  -6  -2  18 6.28520 2.67541   3
   5   2 -18 25.9239 37.4958   1
   4   2 -18 -11.630 25.5011   1
   4   2 -18 6.72006 1.56677   2
  -4  -2  18 10.2718 2.39898   3
   3   2 -18 0.31604 1.08299   2
   3   2 -18 -8.5838 24.3900   1
  -3  -2  18 21.1892 22.2944   1
  -3  -2  18 3.96698 1.64215   3
   2   2 -18 5.17029 19.7187   1
   2   2 -18 13.5514 1.70402   2
  -2  -2  18 10.1993 21.6295   1
  -2  -2  18 15.9969 2.27013   3
   1   2 -18 74.0337 21.7569   1
   1   2 -18 85.1811 3.77959   2
  -1  -2  18 91.6374 4.32214   3
  -1  -2  18 86.2743 3.67619   2
  -1  -2  18 89.2855 24.2297   1
   0   2 -18 11.3749 16.3161   1
   0   2 -18 4.50867 1.20042   2
   0  -2  18 5.57865 18.1138   1
  -1   2 -18 113.298 22.8025   1
   1  -2  18 139.878 4.88035   2
   1  -2  18 137.561 26.2533   1
  -2   2 -18 -3.4694 18.5181   1
   2  -2  18 7.40995 1.16754   2
   2  -2  18 29.2745 21.8464   1
  -3   2 -18 -10.663 20.3377   1
   3  -2  18 13.2120 21.4922   1
  -4   2 -18 -17.589 22.8081   1
   4  -2  18 12.9937 1.59783   2
   4  -2  18 5.72712 22.8355   1
   4  -2  18 10.5476 1.51340   2
   5  -2  18 21.6519 2.14655   2
   5  -2  18 17.3973 27.2997   1
   6  -2  18 87.9174 55.2397   1
   7  -2  18 0.02895 1.23363   2
   5   1 -18 5.84127 38.5342   1
   5   1 -18 -36.156 34.7429   1
   5   1 -18 5.63364 1.60072   2
  -5  -1  18 4.46772 2.12941   3
   4   1 -18 30.7767 29.9245   1
   4   1 -18 23.7388 27.7631   1
   3   1 -18 -5.0604 22.0259   1
   2   1 -18 -9.5992 20.8257   1
   2   1 -18 0.61757 1.11132   2
  -2  -1  18 -18.449 21.5256   1
  -2  -1  18 3.09587 1.53861   3
   1   1 -18 12.4398 16.9841   1
   1   1 -18 1.65014 1.06077   2
  -1  -1  18 1.85860 1.69384   3
  -1  -1  18 -6.7353 17.6733   1
   0   1 -18 0.72064 1.00148   2
   0   1 -18 -5.6550 15.6597   1
   0  -1  18 37.8161 33.7012   1
   0  -1  18 0.03816 0.98250   2
   0  -1  18 -1.0744 1.03492   3
  -1   1 -18 63.1392 3.17600   2
  -1   1 -18 53.5664 19.3599   1
   1  -1  18 63.1427 3.03099   2
   1  -1  18 65.7478 22.7639   1
  -2   1 -18 -10.934 14.5338   1
   2  -1  18 2.75049 1.00401   2
   2  -1  18 -6.4363 16.2624   1
  -3   1 -18 17.0705 18.8957   1
   3  -1  18 3.89647 1.08902   2
   3  -1  18 -14.301 20.4920   1
  -4   1 -18 105.522 25.8879   1
   4  -1  18 90.3635 24.3550   1
   5  -1  18 26.7365 26.2969   1
   5  -1  18 44.4696 2.85678   2
  -6   1 -18 18.9716 25.4211   1
   6  -1  18 5.30956 49.0046   1
   7  -1  18 14.1327 1.90421   2
   8  -1  18 4.20510 1.51218   2
   5   0 -18 -39.373 36.2491   1
   5   0 -18 3.06384 1.76137   2
   5   0 -18 -14.031 43.6598   1
  -5   0  18 1.04425 1.95628   3
   4   0 -18 17.3211 31.4809   1
   4   0 -18 50.4082 33.4211   1
   3   0 -18 19.6861 31.8575   1
   3   0 -18 1.99894 1.28721   2
   3   0 -18 -34.593 22.9825   1
  -3   0  18 -0.2346 1.40726   3
   2   0 -18 111.394 5.20924   2
   2   0 -18 93.8333 24.6490   1
  -2   0  18 107.217 5.08093   3
  -2   0  18 101.378 25.6179   1
   1   0 -18 3.59257 1.19915   2
   1   0 -18 9.05425 19.4844   1
  -1   0  18 -10.249 17.4062   1
  -1   0  18 3.53850 1.63223   3
   0   0 -18 5.07081 1.36770   2
   0   0 -18 10.9747 15.7204   1
   0   0  18 5.44277 1.40875   3
   0   0  18 7.45265 19.6320   1
  -1   0 -18 -4.6567 16.8798   1
  -1   0 -18 9.35245 1.40219   2
   1   0  18 21.8447 17.0447   1
  -2   0 -18 3.43491 14.1394   1
   2   0  18 -2.8904 17.9073   1
  -3   0 -18 19.3771 17.7506   1
   3   0  18 -2.4741 19.2686   1
  -4   0 -18 60.3216 19.6814   1
   4   0  18 54.1583 21.3867   1
   5   0  18 14.2229 20.9178   1
  -6   0 -18 11.1167 22.6424   1
   6   0  18 9.96723 1.79598   2
   7   0  18 6.15067 1.57440   2
   8   0  18 2.88538 1.55110   2
   5  -1 -18 32.4184 3.46983   2
   5  -1 -18 34.2218 49.4357   1
  -5   1  18 22.5918 3.16199   3
   4  -1 -18 -41.060 37.0847   1
   4  -1 -18 -20.668 35.6906   1
   3  -1 -18 -24.808 27.0107   1
   3  -1 -18 -1.7271 27.9737   1
   3  -1 -18 4.58442 1.47566   2
  -3   1  18 4.08519 1.93405   3
   2  -1 -18 5.64142 20.4373   1
   2  -1 -18 -4.6526 25.3203   1
   1  -1 -18 8.99039 1.74819   2
   1  -1 -18 -0.3601 17.4228   1
  -1   1  18 8.81680 1.84561   3
  -1   1  18 7.07873 20.0330   1
   0  -1 -18 -1.1378 1.01388   2
   0  -1 -18 36.1027 18.7551   1
   0   1  18 2.07708 19.3662   1
   0   1  18 -0.2659 1.08435   3
  -1  -1 -18 0.79070 1.14944   2
  -1  -1 -18 -4.9295 15.8077   1
   1   1  18 20.6360 17.1512   1
   1   1  18 2.84163 1.02829   3
  -2  -1 -18 5.15919 15.5915   1
   2   1  18 -36.568 15.0828   1
  -3  -1 -18 2.33541 15.5523   1
   3   1  18 2.76578 16.1516   1
  -4  -1 -18 23.1840 17.8385   1
   4   1  18 21.8237 19.0476   1
   5   1  18 6.42482 20.2282   1
  -6  -1 -18 8.11808 21.9644   1
   6   1  18 7.69116 45.1535   1
   7   1  18 39.5322 3.18178   2
   8   1  18 -0.2736 1.33308   2
   9   1  18 9.56571 2.00000   2
   4  -2 -18 -38.585 41.6633   1
   3  -2 -18 82.0210 4.53863   2
   3  -2 -18 79.5839 34.3017   1
   3  -2 -18 67.0373 31.9693   1
  -3   2  18 79.5046 4.86586   3
   2  -2 -18 2.03672 1.38627   2
   2  -2 -18 -12.061 23.5655   1
  -2   2  18 2.26264 1.57136   3
   1  -2 -18 36.8071 22.8858   1
   1  -2 -18 4.90438 19.7643   1
   1  -2 -18 31.7481 2.79614   2
  -1   2  18 39.7117 3.05390   3
  -1   2  18 3.28664 20.4344   1
   0  -2 -18 78.4240 19.6776   1
   0   2  18 85.7990 3.95690   3
   0   2  18 67.7892 21.4421   1
  -1  -2 -18 21.3072 15.4017   1
  -1  -2 -18 19.0538 2.19501   2
   1   2  18 19.0107 17.2466   1
   1   2  18 23.4472 1.92670   3
  -2  -2 -18 7.23951 14.7491   1
  -2  -2 -18 1.59074 1.01747   2
   2   2  18 -41.182 18.2390   1
   2   2  18 -0.1602 0.81734   3
  -3  -2 -18 7.21812 15.8145   1
   3   2  18 -3.7996 15.3464   1
  -4  -2 -18 11.1686 16.0897   1
   4   2  18 14.8529 17.1817   1
  -5  -2 -18 0.16661 19.8257   1
   5   2  18 33.3091 22.4198   1
  -6  -2 -18 72.0169 22.1632   1
   6   2  18 150.079 29.2566   1
   7   2  18 18.0318 2.33974   2
   8   2  18 14.9877 2.34959   2
   9   2  18 19.6354 2.76252   2
   4  -3 -18 0.55993 1.91077   2
  -4   3  18 3.57197 1.96807   3
   3  -3 -18 0.81508 1.44465   2
   3  -3 -18 -19.254 35.5068   1
  -3   3  18 -0.1939 1.56046   3
   2  -3 -18 21.8758 27.5371   1
   2  -3 -18 31.4871 24.8596   1
   2  -3 -18 6.88782 1.84997   2
  -2   3  18 8.86038 2.22264   3
   1  -3 -18 14.6783 23.8157   1
   1  -3 -18 44.1761 20.7540   1
   0  -3 -18 12.2106 1.90966   2
   0  -3 -18 8.90559 21.0126   1
   0   3  18 21.4358 23.1957   1
  -1  -3 -18 53.5319 3.42890   2
  -1  -3 -18 46.4154 17.3983   1
   1   3  18 28.7469 20.0254   1
   1   3  18 50.1131 2.87649   3
  -2  -3 -18 1.50044 1.99014   2
  -2  -3 -18 -5.5625 14.2420   1
   2   3  18 -0.5116 0.79255   3
   2   3  18 19.9267 19.3964   1
  -3  -3 -18 3.67906 1.40448   2
  -3  -3 -18 4.11052 15.2374   1
   3   3  18 -2.7423 16.6488   1
   4   3  18 33.2425 17.1206   1
  -5  -3 -18 13.0998 16.6613   1
  -6  -3 -18 32.2210 20.0395   1
   6   3  18 46.8769 23.2452   1
   8   3  18 59.8868 4.02446   2
   9   3  18 25.2479 2.89172   2
  -3   4  18 28.7960 3.31368   3
   2  -4 -18 30.2845 31.4321   1
   2  -4 -18 9.54544 2.03575   2
  -2   4  18 14.4812 2.49571   3
   1  -4 -18 -2.5203 1.25298   2
   1  -4 -18 -18.615 23.0465   1
  -1   4  18 1.56884 1.43101   3
   0  -4 -18 11.4279 20.3672   1
   0  -4 -18 33.2378 21.4422   1
  -1  -4 -18 0.56529 1.28677   2
  -1  -4 -18 -49.609 16.7916   1
  -1  -4 -18 -25.902 22.3537   1
   1   4  18 0.85216 1.19004   3
   1   4  18 17.7550 20.6829   1
  -2  -4 -18 98.8735 21.4035   1
   2   4  18 107.331 23.8362   1
   2   4  18 93.2582 3.73613   3
  -3  -4 -18 14.4188 14.2507   1
   3   4  18 34.8372 22.3090   1
  -4  -4 -18 13.0398 15.5526   1
  -5  -4 -18 27.8381 16.1528   1
   5   4  18 1.81099 18.7051   1
   8   4  18 62.1294 4.34045   2
   9   4  18 19.7200 2.87632   2
   2  -5 -18 7.14517 1.91284   2
  -2   5  18 4.81744 2.24121   3
   1  -5 -18 -10.649 28.2806   1
   1  -5 -18 4.41785 1.80901   2
  -1   5  18 6.31564 1.85310   3
   0  -5 -18 53.7219 3.78385   2
   0   5  18 55.9206 3.55516   3
  -1  -5 -18 0.10808 1.37397   2
  -1  -5 -18 0.40490 20.4146   1
   1   5  18 0.60122 1.19546   3
  -2  -5 -18 75.0271 20.3503   1
  -2  -5 -18 27.4648 20.9459   1
  -2  -5 -18 62.2367 3.82139   2
   2   5  18 40.4810 23.4954   1
   2   5  18 62.3626 3.05829   3
  -3  -5 -18 53.3509 18.1296   1
  -3  -5 -18 57.7029 3.65396   2
   3   5  18 51.2955 23.0835   1
   3   5  18 56.3479 2.53416   3
  -4  -5 -18 7.86490 16.1760   1
   4   5  18 -33.194 19.2650   1
   5   5  18 -31.978 34.7937   1
   9   5  18 86.8516 5.34703   2
   1  -6 -18 32.7236 3.57143   2
  -1   6  18 41.1156 3.68425   3
   0  -6 -18 41.9498 29.4799   1
  -1  -6 -18 19.1567 2.60248   2
   1   6  18 21.9238 2.57204   3
  -2  -6 -18 -39.520 20.8120   1
  -2  -6 -18 2.07281 1.47486   2
   2   6  18 2.58120 1.22316   3
  -3  -6 -18 8.51768 19.1757   1
  -4  -6 -18 20.1146 18.5261   1
  -5  -6 -18 0.27269 16.6424   1
   9   6  18 31.3216 5.63478   2
   0  -7 -18 11.3719 2.65522   2
   0   7  18 22.5824 3.01607   3
  -1  -7 -18 -0.6402 1.60292   2
  -1  -7 -18 24.0397 29.4053   1
   1   7  18 6.90526 1.94274   3
  -2  -7 -18 94.4844 5.07795   2
  -2  -7 -18 114.098 26.9262   1
   2   7  18 103.395 4.56396   3
  -3  -7 -18 4.78608 20.6016   1
  -3  -7 -18 -2.0015 1.21640   2
   3   7  18 2.76207 1.10489   3
  -4  -7 -18 25.5705 2.65166   2
  -4  -7 -18 9.23708 20.3556   1
  -5  -7 -18 28.5786 17.8910   1
  -6  -7 -18 15.6243 16.4507   1
   9   7  18 13.8324 2.83790   2
  -1  -8 -18 7.31363 2.29177   2
   1   8  18 14.8966 2.52856   3
  -2  -8 -18 2.01579 2.19854   2
   2   8  18 1.75230 1.30673   3
  -3  -8 -18 13.3441 23.7307   1
  -3  -8 -18 6.76886 1.99427   2
   3   8  18 1.85555 1.28167   3
  -4  -8 -18 -40.354 18.9708   1
  -4  -8 -18 9.12633 2.12638   2
  -5  -8 -18 20.9594 22.2309   1
  -3  -9 -18 12.0646 2.22421   2
   3   9  18 16.3362 2.19733   3
  -4  -9 -18 3.85698 1.74062   2
   4   9  18 5.58756 1.30749   3
  -2  -6  19 -33.527 28.7588   1
   1   6 -19 24.2844 35.2480   1
  -1  -6  19 31.3386 31.1437   1
   0   6 -19 15.5774 34.5601   1
   0  -6  19 1.34996 31.8298   1
  -1   6 -19 19.0061 35.2352   1
   1  -6  19 20.8402 36.5707   1
  -2   6 -19 -4.4634 37.4752   1
   2  -6  19 -27.570 52.1458   1
   5   5 -19 11.6536 1.58524   2
   4   5 -19 65.5148 46.3550   1
   3   5 -19 -11.989 35.6150   1
  -3  -5  19 -0.5660 29.3493   1
   2   5 -19 24.0368 28.4222   1
  -2  -5  19 27.3403 29.7384   1
   1   5 -19 97.5252 30.2548   1
  -1  -5  19 67.6189 29.6835   1
   0   5 -19 36.1728 29.6712   1
   0  -5  19 8.49244 27.5490   1
  -1   5 -19 0.18437 28.0465   1
   1  -5  19 -8.1044 31.8151   1
  -2   5 -19 -31.773 31.7862   1
   2  -5  19 14.9495 44.2049   1
  -3   5 -19 25.8440 37.3350   1
   3  -5  19 57.5339 39.1082   1
  -4   5 -19 -30.053 42.6851   1
   4  -5  19 -21.858 43.7568   1
   5   4 -19 5.59070 1.53207   2
  -5  -4  19 6.35821 2.25349   3
   4   4 -19 9.25072 37.3396   1
   4   4 -19 42.0260 2.74253   2
  -4  -4  19 49.1468 4.08189   3
   3   4 -19 -0.4116 1.00781   2
   3   4 -19 -58.848 31.5885   1
  -3  -4  19 18.1755 30.8349   1
   2   4 -19 -18.401 26.1530   1
   2   4 -19 9.00523 1.31448   2
  -2  -4  19 23.9896 24.4581   1
  -2  -4  19 7.45725 1.44251   2
   1   4 -19 53.7152 26.3229   1
  -1  -4  19 76.1680 30.1385   1
  -1  -4  19 86.5743 3.35591   2
   0   4 -19 81.3130 27.5478   1
   0  -4  19 20.7279 1.66776   2
   0  -4  19 16.0850 28.1702   1
  -1   4 -19 43.7877 25.4724   1
   1  -4  19 100.128 3.49654   2
   1  -4  19 66.0761 27.4058   1
  -2   4 -19 43.4585 28.0620   1
   2  -4  19 19.6453 1.65189   2
   2  -4  19 11.8471 32.5516   1
   2  -4  19 23.1090 1.81989   2
  -3   4 -19 145.129 36.8048   1
   3  -4  19 150.030 6.04439   2
   3  -4  19 158.531 37.8016   1
   3  -4  19 162.018 5.08466   2
  -4   4 -19 10.4016 37.8002   1
   4  -4  19 30.2935 39.5476   1
   4  -4  19 9.93860 1.28997   2
   5  -4  19 2.67701 1.02433   2
   5  -4  19 8.84447 43.0996   1
   5   3 -19 165.017 77.1996   1
   4   3 -19 28.7248 34.5634   1
   4   3 -19 15.1621 1.87466   2
  -4  -3  19 18.2246 3.02063   3
   3   3 -19 2.18667 1.08352   2
   3   3 -19 -3.7113 27.6657   1
  -3  -3  19 0.89750 1.74923   3
  -3  -3  19 15.1393 26.8552   1
   2   3 -19 -0.4278 0.97823   2
   2   3 -19 -11.912 23.8744   1
  -2  -3  19 -8.6480 23.3740   1
   1   3 -19 149.726 30.0108   1
   1   3 -19 137.871 4.98228   2
  -1  -3  19 136.938 4.90730   2
  -1  -3  19 144.189 29.5220   1
   0   3 -19 31.3170 23.7018   1
   0  -3  19 20.9705 1.82208   2
   0  -3  19 4.88187 26.2689   1
  -1   3 -19 5.48471 24.0963   1
  -2   3 -19 33.9888 26.1770   1
   2  -3  19 40.9499 2.30467   2
   2  -3  19 14.8648 24.9339   1
  -3   3 -19 7.21809 25.7203   1
   3  -3  19 0.96705 0.91605   2
   3  -3  19 -18.651 27.1243   1
   3  -3  19 0.26880 0.98304   2
  -4   3 -19 34.5524 50.2490   1
   4  -3  19 -0.5278 0.96755   2
   4  -3  19 -5.5548 33.4358   1
   4  -3  19 0.61306 1.19473   2
   5  -3  19 143.272 5.19633   2
   5  -3  19 173.826 40.0721   1
   6  -3  19 4.34396 52.2385   1
   5   2 -19 -8.5432 45.9510   1
   5   2 -19 6.12599 1.70667   2
   5   2 -19 13.9847 42.2021   1
  -5  -2  19 7.60470 2.33331   3
   4   2 -19 19.6534 2.29439   2
   4   2 -19 0.91103 34.1835   1
  -4  -2  19 22.7524 3.12090   3
   3   2 -19 0.75331 30.2653   1
  -3  -2  19 1.20100 26.8432   1
  -3  -2  19 0.26977 1.55617   3
   2   2 -19 -20.990 23.0030   1
  -2  -2  19 10.5532 2.01242   3
  -2  -2  19 2.42251 23.2754   1
   1   2 -19 -1.9256 23.0596   1
   1   2 -19 2.49783 1.13671   2
  -1  -2  19 -0.8015 22.1076   1
   0   2 -19 -31.616 19.1308   1
   0  -2  19 -38.449 33.9424   1
  -1   2 -19 111.523 24.3498   1
   1  -2  19 77.7709 24.6057   1
   1  -2  19 101.373 3.97206   2
  -2   2 -19 148.040 27.1905   1
   2  -2  19 157.525 28.7547   1
   2  -2  19 157.334 5.40417   2
  -3   2 -19 118.431 26.5082   1
   3  -2  19 135.537 4.87027   2
   3  -2  19 171.513 30.7140   1
   4  -2  19 42.1258 28.5549   1
   4  -2  19 72.1448 3.43713   2
  -5   2 -19 131.444 32.8342   1
   5  -2  19 159.953 5.70024   2
   5  -2  19 129.795 35.7441   1
   6  -2  19 64.7160 42.2066   1
   7  -2  19 -0.9839 1.23872   2
   5   1 -19 80.6018 56.1907   1
   5   1 -19 -38.462 48.9556   1
   5   1 -19 -2.7472 1.44811   2
  -5  -1  19 1.08619 1.79664   3
   4   1 -19 -22.783 32.3980   1
   4   1 -19 -34.796 36.6098   1
   4   1 -19 6.11633 1.75707   2
  -4  -1  19 4.76221 2.19138   3
   3   1 -19 -60.387 29.2388   1
   3   1 -19 -1.8064 1.02290   2
  -3  -1  19 -0.0002 1.75921   3
   2   1 -19 15.3873 2.08272   2
   2   1 -19 17.2843 26.2797   1
  -2  -1  19 14.7397 2.42817   3
  -2  -1  19 -6.2862 26.1592   1
   1   1 -19 12.7187 1.72868   2
   1   1 -19 -20.771 22.4392   1
  -1  -1  19 14.7596 2.10333   3
  -1  -1  19 29.3745 22.3360   1
   0   1 -19 47.0331 21.0695   1
   0   1 -19 -1.0375 0.94737   2
   0  -1  19 -0.9606 20.3680   1
  -1   1 -19 11.3834 19.8952   1
   1  -1  19 22.0636 22.3946   1
  -2   1 -19 59.7897 21.1503   1
   2  -1  19 48.3485 24.1842   1
  -3   1 -19 4.33600 21.4497   1
   3  -1  19 18.4060 22.1385   1
   4  -1  19 -13.821 24.4203   1
  -5   1 -19 13.2571 28.2009   1
   5  -1  19 73.2864 32.1014   1
   5  -1  19 51.5593 3.10207   2
   6  -1  19 51.6122 3.92707   2
   6  -1  19 55.4791 33.1677   1
   7  -1  19 27.9761 2.66512   2
   4   0 -19 -35.911 35.1832   1
   4   0 -19 17.8296 43.4001   1
   4   0 -19 -0.1428 1.47192   2
  -4   0  19 -0.5586 1.60142   3
   3   0 -19 -23.702 30.4728   1
   3   0 -19 5.54500 34.3183   1
   3   0 -19 2.56455 1.36841   2
  -3   0  19 6.49240 2.01927   3
   2   0 -19 0.57809 1.14963   2
   2   0 -19 -22.019 22.8537   1
  -2   0  19 -24.460 25.2679   1
  -2   0  19 -0.1606 1.42065   3
   1   0 -19 0.28431 1.22640   2
   1   0 -19 -14.204 23.2031   1
  -1   0  19 -14.956 23.5233   1
  -1   0  19 0.82952 1.28760   3
   0   0 -19 0.22360 1.16838   2
   0   0 -19 46.3558 20.0220   1
   0   0  19 1.23813 1.22786   3
   0   0  19 -5.2651 19.9655   1
  -1   0 -19 11.3167 18.7905   1
   1   0  19 5.97348 20.1260   1
  -2   0 -19 0.53716 17.3136   1
   2   0  19 13.7965 20.2554   1
  -3   0 -19 21.0160 18.8383   1
   3   0  19 19.0905 19.9479   1
   4   0  19 150.455 30.7011   1
  -5   0 -19 -8.7456 24.4022   1
   5   0  19 4.76670 29.0907   1
   6   0  19 -25.579 28.8962   1
   7   0  19 22.0270 2.39527   2
   8   0  19 3.06167 1.50499   2
   4  -1 -19 -22.861 41.8124   1
   4  -1 -19 -0.0061 1.55355   2
  -4   1  19 -0.0995 1.62860   3
   3  -1 -19 35.3342 39.5755   1
   3  -1 -19 38.7309 31.4856   1
   2  -1 -19 71.5978 31.5894   1
   2  -1 -19 57.9615 3.62249   2
  -2   1  19 45.3562 3.58313   3
   1  -1 -19 5.71586 1.49914   2
   1  -1 -19 -3.4554 21.4789   1
  -1   1  19 -25.288 22.1693   1
   0  -1 -19 28.0102 20.0386   1
   0   1  19 33.7404 22.1971   1
   0   1  19 23.5349 2.33724   3
  -1  -1 -19 9.54125 1.55783   2
  -1  -1 -19 28.2439 18.8662   1
   1   1  19 21.5727 22.2124   1
   1   1  19 7.15043 1.38648   3
  -2  -1 -19 3.14389 19.0033   1
  -2  -1 -19 8.15258 1.50451   2
   2   1  19 -14.544 17.6665   1
  -3  -1 -19 -16.288 18.0228   1
   3   1  19 23.8137 21.6834   1
  -4  -1 -19 102.716 26.0748   1
   4   1  19 71.4142 24.4221   1
  -5  -1 -19 33.2280 22.9173   1
   5   1  19 -22.008 40.1798   1
   6   1  19 4.15855 30.0728   1
   6   1  19 12.0235 1.88869   2
   7   1  19 4.68738 1.55184   2
   8   1  19 4.15683 1.57106   2
   4  -2 -19 1.37727 1.92342   2
   3  -2 -19 8.24383 36.1406   1
   3  -2 -19 -1.3355 1.37241   2
  -3   2  19 2.78438 1.92930   3
   2  -2 -19 30.6542 29.4800   1
   2  -2 -19 16.6500 29.0809   1
   2  -2 -19 4.78040 1.77432   2
  -2   2  19 11.2246 2.24529   3
   1  -2 -19 -10.815 26.1062   1
   1  -2 -19 27.0003 23.2708   1
   1  -2 -19 -3.2013 1.09621   2
  -1   2  19 0.16588 1.31623   3
  -1   2  19 5.40643 25.1311   1
   0  -2 -19 6.53073 31.4110   1
   0  -2 -19 4.48457 1.43164   2
   0   2  19 8.93631 22.3857   1
  -1  -2 -19 13.9842 2.04052   2
   1   2  19 23.7332 23.0149   1
   1   2  19 12.2470 1.69384   3
   2   2  19 67.4664 24.7636   1
   2   2  19 40.0915 2.11173   3
  -3  -2 -19 44.6330 34.5341   1
   3   2  19 -10.797 21.5541   1
  -4  -2 -19 51.1539 19.7511   1
   4   2  19 37.6605 28.4812   1
  -5  -2 -19 -0.8657 21.2791   1
   5   2  19 -0.7672 24.4847   1
   7   2  19 -3.0684 1.20453   2
   8   2  19 10.5136 2.19000   2
   3  -3 -19 4.10285 2.33370   2
  -3   3  19 5.92140 2.15848   3
   2  -3 -19 -48.738 33.4888   1
   2  -3 -19 -0.1038 1.43036   2
  -2   3  19 -2.8408 1.44553   3
   1  -3 -19 23.2442 2.49815   2
   1  -3 -19 16.5555 29.7590   1
  -1   3  19 32.4875 3.06539   3
   0  -3 -19 46.9945 3.38001   2
   0  -3 -19 2.93904 20.1108   1
   0   3  19 48.3184 45.1605   1
   0   3  19 40.3166 3.03902   3
  -1  -3 -19 49.1568 18.5470   1
   1   3  19 25.7201 22.8225   1
  -2  -3 -19 28.2591 2.64700   2
  -2  -3 -19 19.4267 19.8489   1
   2   3  19 23.9347 1.79957   3
   2   3  19 27.2072 21.0531   1
  -3  -3 -19 21.4882 18.3863   1
   3   3  19 28.0708 37.1033   1
  -4  -3 -19 17.4096 18.8029   1
   4   3  19 44.9250 21.1835   1
   5   3  19 37.4461 23.6924   1
   8   3  19 4.05619 1.78763   2
   2  -4 -19 14.9277 2.50534   2
  -2   4  19 22.6900 3.02082   3
   1  -4 -19 5.82463 1.68967   2
  -1   4  19 3.29425 1.68937   3
   0  -4 -19 2.08887 1.40959   2
   0  -4 -19 -29.517 22.0583   1
   0   4  19 5.63161 1.73868   3
  -1  -4 -19 26.1858 24.2065   1
  -1  -4 -19 48.0317 3.49894   2
   1   4  19 53.9935 25.5172   1
   1   4  19 50.7004 3.18718   3
  -2  -4 -19 3.70412 1.49927   2
  -2  -4 -19 -17.125 21.0256   1
   2   4  19 -39.962 20.9480   1
   2   4  19 -0.3549 0.97475   3
  -3  -4 -19 68.0420 3.90818   2
  -3  -4 -19 53.4935 22.7360   1
   3   4  19 66.8850 22.9228   1
   4   4  19 8.32995 23.6419   1
   8   4  19 5.07014 1.98866   2
   1  -5 -19 4.16626 1.85920   2
  -1   5  19 9.55248 2.10686   3
   0  -5 -19 4.96133 1.80148   2
   0   5  19 12.8422 2.16052   3
  -1  -5 -19 4.21826 1.68381   2
  -1  -5 -19 -17.261 24.8048   1
   1   5  19 5.44592 1.48984   3
  -2  -5 -19 66.8448 3.99639   2
  -2  -5 -19 100.898 25.0685   1
   2   5  19 61.6840 3.22234   3
  -3  -5 -19 35.7474 3.21523   2
   0  -6 -19 94.4991 6.48901   2
   0   6  19 91.7790 4.89777   3
  -1  -6 -19 7.03492 2.02635   2
   1   6  19 8.63973 1.75639   3
  -2  -6 -19 48.5761 27.4359   1
  -2  -6 -19 59.9459 4.03456   2
   2   6  19 62.3634 3.90878   3
  -3  -6 -19 70.1341 24.5386   1
   3   6  19 96.4519 3.81058   3
  -4  -6 -19 -8.5054 21.5039   1
  -5  -6 -19 15.7781 20.5157   1
  -1  -7 -19 2.36271 1.84005   2
   1   7  19 1.40196 1.42776   3
  -2  -7 -19 16.9798 32.4850   1
  -2  -7 -19 17.8098 2.27932   2
   2   7  19 28.2416 2.59904   3
  -3  -7 -19 42.4960 25.3025   1
  -5  -7 -19 0.06316 21.4628   1
  -6  -7 -19 -15.284 20.2270   1
  -3  -8 -19 0.83410 1.68445   2
   3   8  19 0.91482 1.33463   3
  -4  -8 -19 47.7377 25.5105   1
  -4  -8 -19 19.9630 3.34026   2
   4   8  19 18.8711 1.77045   3
   1   6 -20 0.91370 48.4443   1
   0   6 -20 57.4287 40.6299   1
  -1   6 -20 18.5030 50.5758   1
   3   5 -20 -2.4636 0.94086   2
   2   5 -20 10.1824 33.7227   1
  -2  -5  20 108.057 53.9569   1
   1   5 -20 47.5789 35.4657   1
  -1  -5  20 8.68187 33.6527   1
   0   5 -20 -8.4078 32.9678   1
   0  -5  20 14.3450 34.5825   1
  -1   5 -20 15.2077 37.8497   1
   1  -5  20 23.7084 42.4816   1
  -2   5 -20 67.2308 46.9151   1
   2  -5  20 9.16831 39.8895   1
  -3   5 -20 127.256 48.0642   1
   4   4 -20 6.59116 1.69284   2
   3   4 -20 -3.0711 35.3921   1
   3   4 -20 -0.4202 1.15835   2
  -3  -4  20 -23.869 55.2152   1
   2   4 -20 1.49802 0.99187   2
   2   4 -20 5.42549 36.4357   1
  -2  -4  20 53.3138 36.3461   1
   1   4 -20 33.3588 28.7791   1
  -1  -4  20 -14.377 33.0226   1
   0   4 -20 170.680 35.1062   1
   0  -4  20 114.889 39.5170   1
  -1   4 -20 -2.0999 29.6201   1
   1  -4  20 -8.4382 30.9692   1
  -2   4 -20 -51.580 35.1577   1
   2  -4  20 -25.437 33.0855   1
   2  -4  20 0.64640 0.92527   2
  -3   4 -20 42.7433 41.3988   1
   3  -4  20 18.4327 42.7973   1
   3  -4  20 31.6783 1.98857   2
   4  -4  20 -25.141 49.6496   1
   4  -4  20 5.21870 1.10557   2
   4   3 -20 17.5653 41.7262   1
   3   3 -20 42.5400 35.3039   1
  -3  -3  20 -26.548 34.0272   1
  -3  -3  20 14.4710 2.75947   3
   2   3 -20 -21.423 30.4802   1
  -2  -3  20 -25.215 31.7010   1
   1   3 -20 38.9287 2.46576   2
   1   3 -20 73.0254 31.5904   1
  -1  -3  20 37.3024 59.3505   1
   0   3 -20 70.1597 29.9882   1
   0  -3  20 37.1560 32.9288   1
   0  -3  20 42.2312 2.57386   2
  -1   3 -20 153.311 32.0799   1
   1  -3  20 113.461 32.5143   1
   1  -3  20 127.871 5.35175   2
  -2   3 -20 62.6702 29.1317   1
   2  -3  20 94.0470 34.8565   1
  -3   3 -20 -24.589 33.1972   1
   3  -3  20 74.5711 36.8298   1
   3  -3  20 34.7446 2.32740   2
  -4   3 -20 -16.373 54.7906   1
   4  -3  20 29.3293 36.2577   1
   4  -3  20 36.6555 2.44374   2
   5  -3  20 -6.3251 49.0420   1
   4   2 -20 53.7636 47.6184   1
   3   2 -20 0.86236 1.29661   2
   3   2 -20 -19.134 36.9560   1
  -3  -2  20 3.57017 1.85942   3
   2   2 -20 -23.122 32.0615   1
   2   2 -20 31.3323 2.99056   2
  -2  -2  20 31.8191 3.14897   3
  -2  -2  20 20.1783 30.1258   1
   1   2 -20 3.55585 1.11069   2
   1   2 -20 -12.947 25.4096   1
  -1  -2  20 13.6635 25.7725   1
   0   2 -20 30.1962 24.9670   1
   0  -2  20 47.3923 26.1383   1
  -1   2 -20 18.2553 24.3028   1
   1  -2  20 28.6583 26.1869   1
  -2   2 -20 -4.0750 24.1102   1
   2  -2  20 -13.881 23.9177   1
  -3   2 -20 -7.9547 44.5645   1
   3  -2  20 16.1926 27.7680   1
  -4   2 -20 33.8198 33.2594   1
   4  -2  20 26.1695 33.6392   1
   5  -2  20 32.8876 37.8514   1
   5  -2  20 42.5490 2.79567   2
   6  -2  20 0.83082 1.22988   2
   4   1 -20 76.9563 56.1202   1
   4   1 -20 12.5308 47.4687   1
   4   1 -20 48.4063 3.52899   2
  -4  -1  20 45.1467 4.20445   3
   3   1 -20 2.36696 1.33502   2
  -3  -1  20 2.95021 1.86422   3
   2   1 -20 10.9565 1.79040   2
   2   1 -20 23.5583 31.4071   1
  -2  -1  20 9.67392 2.04317   3
  -2  -1  20 36.0449 29.2873   1
   1   1 -20 5.87484 25.9490   1
  -1  -1  20 1.52957 1.42527   3
  -1  -1  20 -7.1889 28.9715   1
   0   1 -20 23.1889 23.4761   1
   0   1 -20 27.3294 2.35717   2
   0  -1  20 20.3916 28.1565   1
  -1   1 -20 22.1468 23.0697   1
   1  -1  20 21.7815 27.5931   1
  -2   1 -20 108.959 26.5105   1
   2  -1  20 65.5962 26.7194   1
  -3   1 -20 14.9682 26.8882   1
   3  -1  20 -1.4085 28.2214   1
  -4   1 -20 27.7331 26.2436   1
   4  -1  20 -36.657 27.8349   1
   5  -1  20 110.407 40.2197   1
   6  -1  20 6.50048 1.46882   2
   3   0 -20 22.9729 40.9091   1
   3   0 -20 19.9680 2.41026   2
   3   0 -20 15.6754 38.8777   1
  -3   0  20 18.8452 2.77030   3
   2   0 -20 -1.1703 1.16845   2
   2   0 -20 -14.441 30.9129   1
  -2   0  20 -21.585 29.2282   1
  -2   0  20 -1.0443 1.46385   3
   1   0 -20 11.3918 1.74088   2
  -1   0  20 8.14605 1.97398   3
  -1   0  20 11.3042 26.6675   1
   0   0 -20 110.261 44.4806   1
   0   0 -20 107.853 5.67287   2
   0   0  20 104.694 30.3356   1
  -1   0 -20 38.1569 26.9116   1
  -1   0 -20 2.97373 1.26201   2
   1   0  20 6.25216 25.0788   1
   2   0  20 15.2911 24.0498   1
  -3   0 -20 17.4985 24.3481   1
   3   0  20 5.03113 23.0471   1
  -4   0 -20 -4.7207 25.8975   1
   4   0  20 17.4408 33.2148   1
   5   0  20 58.1898 31.1499   1
   6   0  20 -1.2681 1.19374   2
   7   0  20 3.94017 1.49318   2
   3  -1 -20 7.26616 46.4106   1
   3  -1 -20 0.29875 1.47281   2
  -3   1  20 1.52834 1.73670   3
   2  -1 -20 40.3437 37.8302   1
   2  -1 -20 37.7776 36.7369   1
   2  -1 -20 18.9647 2.24577   2
  -2   1  20 29.2192 3.16576   3
   1  -1 -20 3.56632 1.49799   2
   1  -1 -20 12.3511 25.7551   1
  -1   1  20 7.94567 1.87519   3
  -1   1  20 40.0501 27.4089   1
   0  -1 -20 28.9372 24.8466   1
   0  -1 -20 21.9400 2.30161   2
   0   1  20 24.4649 2.43203   3
   0   1  20 11.1038 25.3815   1
  -1  -1 -20 23.2431 24.3349   1
  -1  -1 -20 -1.3674 0.99947   2
   1   1  20 -7.7385 23.2345   1
   1   1  20 -0.2980 0.98423   3
  -2  -1 -20 81.9026 25.3814   1
   2   1  20 60.0940 25.7838   1
  -3  -1 -20 -10.658 19.7734   1
   3   1  20 45.0355 27.2992   1
  -4  -1 -20 15.8615 21.3278   1
   4   1  20 44.8624 32.0328   1
   5   1  20 1.73094 31.1264   1
   6   1  20 -0.0929 1.30011   2
   7   1  20 5.73126 1.74670   2
   3  -2 -20 8.30809 3.08566   2
  -3   2  20 20.7575 3.11807   3
   2  -2 -20 0.01703 1.34407   2
   2  -2 -20 9.11439 40.0140   1
  -2   2  20 4.89821 1.90355   3
   1  -2 -20 39.6589 33.6393   1
   1  -2 -20 54.2706 3.82400   2
  -1   2  20 66.6551 3.93970   3
   0  -2 -20 37.0532 25.1507   1
   0  -2 -20 7.01068 1.79703   2
   0   2  20 13.8559 2.02948   3
   0   2  20 24.7524 31.9164   1
  -1  -2 -20 89.8853 26.9956   1
  -1  -2 -20 55.5118 3.44382   2
   1   2  20 56.4549 3.01105   3
   1   2  20 87.7015 32.2101   1
  -2  -2 -20 9.25122 1.80187   2
  -2  -2 -20 3.40018 22.4860   1
  -3  -2 -20 36.5235 20.1194   1
   3   2  20 8.33737 28.8832   1
   4   2  20 18.5665 23.9183   1
   7   2  20 127.035 5.85627   2
   8   2  20 6.07922 2.00454   2
   2  -3 -20 14.3342 2.30984   2
  -2   3  20 15.0457 2.51752   3
   1  -3 -20 1.73428 31.4514   1
   1  -3 -20 5.07307 1.69853   2
  -1   3  20 2.50075 1.87094   3
   0  -3 -20 29.4418 30.7659   1
   0   3  20 27.1353 32.6439   1
  -1  -3 -20 4.85937 1.65679   2
   1   3  20 -11.182 28.3039   1
   1   3  20 1.92839 1.22557   3
   2   3  20 -26.314 26.7870   1
   3   3  20 66.6526 25.6083   1
   8   3  20 11.3856 2.16565   2
   1  -4 -20 2.93476 1.65357   2
  -1   4  20 0.85244 1.63879   3
   0  -4 -20 39.6818 32.4020   1
  -1  -4 -20 19.6021 2.31973   2
  -1  -4 -20 10.3609 27.3374   1
   1   4  20 26.8518 2.38032   3
  -2  -4 -20 -14.290 27.4677   1
  -3  -4 -20 -1.3300 1.10704   2
   8   4  20 30.8620 3.85492   2
   0  -5 -20 2.54201 2.22838   2
   0   5  20 4.67749 1.77548   3
  -1  -5 -20 42.0430 3.59212   2
  -1  -5 -20 29.4010 31.9293   1
   1   5  20 49.7588 3.22738   3
  -2  -5 -20 35.5056 34.0190   1
  -3  -5 -20 14.9077 2.06649   2
  -1  -6 -20 6.27510 2.10165   2
   1   6  20 5.20771 1.70191   3
  -2  -6 -20 7.46733 2.11636   2
   2   6  20 8.84950 1.72784   3
  -3  -6 -20 -1.7446 1.51113   2
  -3  -6 -20 -34.875 28.3449   1
  -4  -6 -20 61.7154 27.3184   1
  -5  -6 -20 16.8167 29.9027   1
  -6  -6 -20 -11.557 25.8592   1
  -2  -7 -20 23.4842 2.93376   2
   2   7  20 20.1707 2.40366   3
  -3  -7 -20 48.2593 3.86238   2
   3   7  20 35.4655 2.61880   3
  -4  -7 -20 38.9486 42.1624   1
  -5  -7 -20 -22.997 26.7579   1
  -6  -7 -20 29.2277 40.7158   1
   1   5 -21 -11.488 53.1221   1
   0   5 -21 56.9789 44.5318   1
  -1   5 -21 -62.990 67.6281   1
   2   4 -21 22.2652 40.6924   1
   1   4 -21 2.82813 36.3119   1
   0   4 -21 -4.8979 35.0605   1
   0  -4  21 18.7347 42.2965   1
   1  -4  21 -31.099 42.6083   1
   1  -4  21 5.37060 1.11267   2
  -2   4 -21 -15.336 40.6854   1
   2  -4  21 -19.549 44.8842   1
   3  -4  21 -37.918 59.3612   1
   3   3 -21 0.52548 1.27634   2
  -2  -3  21 85.3344 40.2875   1
   1   3 -21 -7.8547 35.8423   1
  -1  -3  21 21.7127 35.0343   1
   0   3 -21 -31.080 36.7212   1
   0  -3  21 14.2257 38.9975   1
   1  -3  21 77.9608 36.1731   1
  -2   3 -21 25.1773 35.5114   1
   2  -3  21 -6.8732 34.5741   1
   3  -3  21 -14.254 38.9646   1
   4  -3  21 30.2249 54.2090   1
   3   2 -21 8.84905 1.78010   2
   3   2 -21 19.9268 46.4395   1
  -3  -2  21 10.2903 2.40801   3
   2   2 -21 6.42665 42.5958   1
  -2  -2  21 39.0547 41.0124   1
  -1  -2  21 -9.9084 36.5051   1
   0  -2  21 8.43811 35.0321   1
  -1   2 -21 -36.951 31.6290   1
   1  -2  21 16.5036 32.3020   1
  -2   2 -21 20.0403 33.1790   1
   2  -2  21 15.4762 31.9294   1
  -3   2 -21 -2.8031 58.4439   1
   3  -2  21 6.01980 33.2753   1
   4  -2  21 -1.4095 1.09226   2
   4  -2  21 -49.576 44.0449   1
   5  -2  21 14.4985 2.01503   2
   3   1 -21 -40.168 49.5791   1
   2   1 -21 48.6274 39.1764   1
   2   1 -21 4.74897 1.54190   2
  -2  -1  21 5.40205 1.88054   3
  -2  -1  21 -3.9574 36.7739   1
   1   1 -21 0.64660 1.31898   2
   1   1 -21 13.4539 31.3036   1
  -1  -1  21 -0.4872 1.35838   3
  -1  -1  21 -28.522 31.7088   1
   0   1 -21 42.2056 3.01238   2
   0   1 -21 69.7241 31.6394   1
   0  -1  21 38.6992 30.3256   1
  -1   1 -21 76.1724 28.9289   1
   1  -1  21 7.03354 32.9671   1
  -2   1 -21 -16.379 28.5031   1
   2  -1  21 5.24215 29.1004   1
   3  -1  21 -20.495 35.1535   1
   4  -1  21 -50.589 37.4936   1
   5  -1  21 3.55066 1.35072   2
   6  -1  21 2.03241 1.26852   2
   2   0 -21 1.41878 1.52392   2
  -2   0  21 4.08351 1.87911   3
   1   0 -21 7.30171 1.66788   2
  -1   0  21 -7.1983 32.2146   1
   0   0 -21 26.2887 28.8881   1
   0   0  21 3.94772 28.9604   1
  -1   0 -21 1.15762 1.18244   2
  -1   0 -21 -1.3508 24.9257   1
   1   0  21 -10.988 30.6259   1
  -2   0 -21 20.6412 24.8729   1
   2   0  21 5.19919 30.0921   1
   3   0  21 20.4221 33.0774   1
   4   0  21 24.8505 31.6704   1
   6   0  21 0.96128 1.42400   2
   2  -1 -21 5.59874 1.73521   2
  -2   1  21 5.24721 1.95354   3
   1  -1 -21 4.70907 1.64884   2
  -1   1  21 6.35585 1.89585   3
  -1   1  21 -34.779 52.1318   1
   0  -1 -21 5.83414 1.68284   2
   0   1  21 8.57892 1.76031   3
  -1  -1 -21 9.72832 1.77235   2
   2   1  21 30.8151 31.8044   1
   3   1  21 119.153 32.9948   1
   6   1  21 8.75448 1.94878   2
   2  -2 -21 7.88004 2.26834   2
  -2   2  21 4.55860 2.09322   3
   1  -2 -21 18.2611 2.36106   2
  -1   2  21 20.7994 2.73089   3
   0  -2 -21 6.59631 1.68344   2
   0   2  21 3.67896 1.54252   3
   0   2  21 20.1967 37.3893   1
  -1  -2 -21 32.6431 2.94749   2
   1   2  21 24.0003 32.9207   1
   1   2  21 24.5314 2.25193   3
   2   2  21 15.5942 28.5217   1
   7   2  21 3.06418 1.87907   2
   1  -3 -21 10.9697 2.45660   2
  -1   3  21 12.1673 2.21351   3
   0  -3 -21 -1.8109 1.19300   2
   0   3  21 0.09964 1.35137   3
  -1  -3 -21 33.1447 28.6280   1
  -1  -3 -21 16.0247 2.10584   2
  -2  -3 -21 26.4311 2.77382   2
   0  -4 -21 41.6439 4.88306   2
   0   4  21 35.3598 3.05067   3
  -1  -4 -21 2.22499 1.61330   2
   1   4  21 0.46690 1.20959   3
  -2  -4 -21 -20.399 34.8031   1
  -1  -5 -21 1.85135 2.01526   2
   1   5  21 3.83480 1.63298   3
  -2  -5 -21 7.58679 2.11176   2
   2   5  21 6.15142 1.39568   3
  -3  -5 -21 8.29051 1.99189   2
  -4  -5 -21 41.5675 48.9926   1
  -3  -6 -21 1.76025 1.63593   2
   1   3 -22 53.5221 43.3174   1
   0   3 -22 50.4865 48.4147   1
   1  -3  22 -28.710 42.9507   1
   2  -3  22 -43.659 43.2890   1
   1   2 -22 -0.1172 1.19400   2
  -1  -2  22 -4.3047 43.5454   1
   0  -2  22 9.45660 43.8256   1
   1  -2  22 -47.058 38.4825   1
   2  -2  22 -33.794 72.5536   1
   3  -2  22 -95.468 38.6729   1
   1   1 -22 55.6617 3.42632   2
  -1  -1  22 95.4622 47.6327   1
   0   1 -22 0.66796 1.17656   2
   0  -1  22 -28.042 37.2803   1
   1  -1  22 47.8089 65.1837   1
   2  -1  22 -9.1506 39.9641   1
   3  -1  22 -52.194 41.7944   1
   1   0 -22 55.6836 3.72303   2
  -1   0  22 45.3480 48.3600   1
  -1   0  22 65.1430 3.88366   3
   0   0  22 45.9965 38.9295   1
   1   0  22 62.9538 40.4177   1
   2   0  22 22.8014 35.1044   1
   5   0  22 -0.4125 1.35070   2
   1  -1 -22 -4.1165 1.37856   2
  -1   1  22 0.03334 1.56385   3
   0  -1 -22 2.99629 1.37591   2
   0   1  22 4.82572 1.60959   3
  -1  -1 -22 77.3083 4.25180   2
   0  -2 -22 64.8451 4.13497   2
   0   2  22 63.5122 3.71368   3
  -1  -2 -22 8.99671 1.89345   2
  -1  -3 -22 32.4850 3.33673   2
   1   3  22 32.3166 2.51842   3
  -2  -3 -22 45.2770 3.60545   2
  -2  -4 -22 9.07261 2.66426   2
   0   0   0    0.00    0.00   0

 _exptl_absorpt_process_details
)
 SADABS 2016/2: Krause, L., Herbst-Irmer, R., Sheldrick G.M. & Stalke D.,
 J. Appl. Cryst. 48 (2015) 3-10
)
 _exptl_absorpt_correction_type   multi-scan
 _exptl_absorpt_correction_T_max  0.7465
 _exptl_absorpt_correction_T_min  0.6679
 _exptl_special_details
)
 The following wavelength and cell were deduced by SADABS from the
 direction cosines etc. They are given here for emergency use only:
 CELL 0.71105    8.297    9.263   15.030   87.549   79.999   64.874
)

;
_shelx_hkl_checksum              72590
loop_
_space_group_symop_operation_xyz
'x, y, z'
'-x, -y, -z'
loop_
_atom_site_label
_atom_site_type_symbol
_atom_site_fract_x
_atom_site_fract_y
_atom_site_fract_z
_atom_site_U_iso_or_equiv
_atom_site_adp_type
_atom_site_occupancy
_atom_site_site_symmetry_order
_atom_site_calc_flag
_atom_site_refinement_flags_posn
_atom_site_refinement_flags_adp
_atom_site_refinement_flags_occupancy
_atom_site_disorder_assembly
_atom_site_disorder_group
O1 O 0.71556(11) 0.09472(9) 0.74231(5) 0.02797(18) Uani 1 1 d . . . . .
O2 O -0.08539(11) 0.68266(9) 0.21161(5) 0.02788(18) Uani 1 1 d . . . . .
N1 N 0.49588(13) 0.37051(11) 0.89593(6) 0.0293(2) Uani 1 1 d . . . . .
N2 N 0.47982(12) 0.31454(11) 0.81670(6) 0.02334(18) Uani 1 1 d . . . . .
N3 N -0.28432(14) 1.02929(12) 0.30449(7) 0.0315(2) Uani 1 1 d . . . . .
N4 N -0.12874(12) 0.89271(11) 0.30321(6) 0.02469(19) Uani 1 1 d . . . . .
C1 C 0.44196(16) 0.52664(13) 0.88402(8) 0.0305(2) Uani 1 1 d . . . . .
H1 H 0.437617 0.599311 0.928131 0.037 Uiso 1 1 calc R U . . .
C2 C 0.39236(16) 0.57127(13) 0.79879(8) 0.0292(2) Uani 1 1 d . . . . .
H2 H 0.349314 0.675415 0.775265 0.035 Uiso 1 1 calc R U . . .
C3 C 0.41956(14) 0.43128(13) 0.75645(7) 0.0228(2) Uani 1 1 d . . . . .
C4 C 0.39375(15) 0.39994(13) 0.66370(7) 0.0251(2) Uani 1 1 d . . . . .
H4A H 0.352331 0.313863 0.666485 0.030 Uiso 1 1 calc R U . . .
H4B H 0.511054 0.362837 0.622055 0.030 Uiso 1 1 calc R U . . .
C5 C 0.25689(17) 0.54813(14) 0.62686(8) 0.0324(3) Uani 1 1 d . . . . .
H5A H 0.292017 0.636832 0.631541 0.039 Uiso 1 1 calc R U . . .
H5B H 0.137692 0.577829 0.665939 0.039 Uiso 1 1 calc R U . . .
C6 C 0.23579(15) 0.53322(14) 0.52954(8) 0.0286(2) Uani 1 1 d . . . . .
H6A H 0.207790 0.440928 0.522596 0.034 Uiso 1 1 calc R U . . .
H6B H 0.350609 0.514210 0.488638 0.034 Uiso 1 1 calc R U . . .
C7 C 0.08422(16) 0.68545(14) 0.50367(8) 0.0308(2) Uani 1 1 d . . . . .
H7A H -0.031472 0.695556 0.540459 0.037 Uiso 1 1 calc R U . . .
H7B H 0.104788 0.777900 0.520127 0.037 Uiso 1 1 calc R U . . .
C8 C 0.06437(15) 0.69568(15) 0.40455(8) 0.0294(2) Uani 1 1 d . . . . .
H8A H 0.175595 0.694459 0.367123 0.035 Uiso 1 1 calc R U . . .
H8B H 0.049497 0.601236 0.386218 0.035 Uiso 1 1 calc R U . . .
C9 C -0.09517(15) 0.84476(14) 0.38774(7) 0.0262(2) Uani 1 1 d . . . . .
C10 C -0.23335(17) 0.95711(15) 0.44625(8) 0.0326(3) Uani 1 1 d . . . . .
H10 H -0.249123 0.959810 0.510451 0.039 Uiso 1 1 calc R U . . .
C11 C -0.34604(18) 1.06670(15) 0.39189(9) 0.0350(3) Uani 1 1 d . . . . .
H11 H -0.454007 1.157241 0.414788 0.042 Uiso 1 1 calc R U . . .
C12 C 0.54184(14) 0.14539(12) 0.79921(7) 0.0236(2) Uani 1 1 d . . . . .
H12 H 0.457304 0.129575 0.764774 0.028 Uiso 1 1 calc R U . . .
C13 C 0.55421(16) 0.04854(13) 0.88345(8) 0.0285(2) Uani 1 1 d . . . . .
H13A H 0.433823 0.085692 0.922316 0.034 Uiso 1 1 calc R U . . .
H13B H 0.638433 0.061552 0.918297 0.034 Uiso 1 1 calc R U . . .
C14 C 0.62286(18) -0.12774(14) 0.85473(8) 0.0329(3) Uani 1 1 d . . . . .
H14A H 0.642043 -0.194430 0.908695 0.040 Uiso 1 1 calc R U . . .
H14B H 0.531227 -0.142032 0.826325 0.040 Uiso 1 1 calc R U . . .
C15 C 0.79978(18) -0.18112(14) 0.78788(9) 0.0372(3) Uani 1 1 d . . . . .
H15A H 0.896811 -0.185016 0.819470 0.045 Uiso 1 1 calc R U . . .
H15B H 0.834211 -0.289920 0.763578 0.045 Uiso 1 1 calc R U . . .
C16 C 0.78101(19) -0.06758(14) 0.71080(9) 0.0358(3) Uani 1 1 d . . . . .
H16A H 0.900111 -0.099275 0.671301 0.043 Uiso 1 1 calc R U . . .
H16B H 0.696595 -0.075665 0.674152 0.043 Uiso 1 1 calc R U . . .
C17 C -0.02799(15) 0.80637(13) 0.21894(7) 0.0244(2) Uani 1 1 d . . . . .
H17 H 0.103596 0.756136 0.222987 0.029 Uiso 1 1 calc R U . . .
C18 C -0.05568(18) 0.91093(14) 0.13795(7) 0.0306(2) Uani 1 1 d . . . . .
H18A H -0.013945 0.994883 0.144310 0.037 Uiso 1 1 calc R U . . .
H18B H -0.185682 0.963558 0.133448 0.037 Uiso 1 1 calc R U . . .
C19 C 0.05235(19) 0.80649(15) 0.05280(8) 0.0348(3) Uani 1 1 d . . . . .
H19A H 0.025786 0.871380 -0.001479 0.042 Uiso 1 1 calc R U . . .
H19B H 0.183290 0.766107 0.053904 0.042 Uiso 1 1 calc R U . . .
C20 C 0.00398(18) 0.66591(15) 0.04745(8) 0.0333(3) Uani 1 1 d . . . . .
H20A H -0.121486 0.705270 0.035927 0.040 Uiso 1 1 calc R U . . .
H20B H 0.085744 0.592182 -0.003348 0.040 Uiso 1 1 calc R U . . .
C21 C 0.02113(18) 0.57792(14) 0.13483(8) 0.0328(3) Uani 1 1 d . . . . .
H21A H -0.018591 0.491668 0.131943 0.039 Uiso 1 1 calc R U . . .
H21B H 0.149594 0.527953 0.142369 0.039 Uiso 1 1 calc R U . . .
loop_
_atom_site_aniso_label
_atom_site_aniso_U_11
_atom_site_aniso_U_22
_atom_site_aniso_U_33
_atom_site_aniso_U_23
_atom_site_aniso_U_13
_atom_site_aniso_U_12
O1 0.0314(4) 0.0233(4) 0.0272(4) 0.0002(3) -0.0018(3) -0.0109(3)
O2 0.0340(4) 0.0271(4) 0.0260(4) 0.0036(3) -0.0040(3) -0.0170(3)
N1 0.0363(5) 0.0268(5) 0.0230(5) -0.0005(4) -0.0114(4) -0.0093(4)
N2 0.0301(5) 0.0222(4) 0.0184(4) 0.0038(4) -0.0091(3) -0.0102(3)
N3 0.0341(5) 0.0274(5) 0.0292(5) 0.0036(4) -0.0119(4) -0.0074(4)
N4 0.0281(4) 0.0263(5) 0.0209(4) 0.0057(4) -0.0093(3) -0.0113(4)
C1 0.0363(6) 0.0241(5) 0.0290(6) -0.0007(5) -0.0105(5) -0.0088(4)
C2 0.0325(6) 0.0208(5) 0.0333(6) 0.0041(5) -0.0104(5) -0.0088(4)
C3 0.0228(5) 0.0229(5) 0.0229(5) 0.0065(4) -0.0073(4) -0.0091(4)
C4 0.0262(5) 0.0291(5) 0.0203(5) 0.0060(4) -0.0057(4) -0.0117(4)
C5 0.0383(6) 0.0292(6) 0.0307(6) 0.0079(5) -0.0177(5) -0.0115(5)
C6 0.0284(5) 0.0347(6) 0.0245(5) 0.0107(5) -0.0094(4) -0.0143(5)
C7 0.0357(6) 0.0338(6) 0.0265(6) 0.0090(5) -0.0155(5) -0.0151(5)
C8 0.0275(5) 0.0360(6) 0.0237(5) 0.0086(5) -0.0074(4) -0.0120(5)
C9 0.0302(5) 0.0323(6) 0.0207(5) 0.0078(4) -0.0100(4) -0.0162(4)
C10 0.0365(6) 0.0370(6) 0.0221(5) 0.0038(5) -0.0086(5) -0.0123(5)
C11 0.0363(6) 0.0325(6) 0.0297(6) -0.0005(5) -0.0079(5) -0.0076(5)
C12 0.0271(5) 0.0227(5) 0.0221(5) 0.0029(4) -0.0075(4) -0.0106(4)
C13 0.0368(6) 0.0258(5) 0.0227(5) 0.0053(5) -0.0078(4) -0.0124(4)
C14 0.0480(7) 0.0239(5) 0.0303(6) 0.0089(5) -0.0140(5) -0.0164(5)
C15 0.0452(7) 0.0231(5) 0.0402(7) 0.0017(5) -0.0125(6) -0.0097(5)
C16 0.0453(7) 0.0249(6) 0.0308(6) -0.0039(5) -0.0002(5) -0.0110(5)
C17 0.0283(5) 0.0262(5) 0.0222(5) 0.0044(4) -0.0069(4) -0.0143(4)
C18 0.0453(7) 0.0276(6) 0.0225(5) 0.0056(5) -0.0089(5) -0.0182(5)
C19 0.0546(8) 0.0316(6) 0.0219(5) 0.0056(5) -0.0050(5) -0.0227(6)
C20 0.0436(7) 0.0304(6) 0.0259(6) -0.0009(5) -0.0047(5) -0.0161(5)
C21 0.0412(7) 0.0238(5) 0.0331(6) 0.0003(5) -0.0033(5) -0.0146(5)
loop_
_atom_type_symbol
_atom_type_description
_atom_type_scat_dispersion_real
_atom_type_scat_dispersion_imag
_atom_type_scat_source
C C 0.0033 0.0016 'International Tables Vol C Tables 4.2.6.8 and 6.1.1.4'
H H 0.0000 0.0000 'International Tables Vol C Tables 4.2.6.8 and 6.1.1.4'
N N 0.0061 0.0033 'International Tables Vol C Tables 4.2.6.8 and 6.1.1.4'
O O 0.0106 0.0060 'International Tables Vol C Tables 4.2.6.8 and 6.1.1.4'
loop_
_geom_angle_atom_site_label_1
_geom_angle_atom_site_label_2
_geom_angle_atom_site_label_3
_geom_angle
_geom_angle_site_symmetry_1
_geom_angle_site_symmetry_3
_geom_angle_publ_flag
C16 O1 C12 110.74(9) . . ?
C17 O2 C21 110.58(8) . . ?
C1 N1 N2 103.81(9) . . ?
C3 N2 N1 112.79(9) . . ?
C3 N2 C12 125.85(9) . . ?
N1 N2 C12 121.01(9) . . ?
C11 N3 N4 103.93(10) . . ?
C9 N4 N3 112.59(9) . . ?
C9 N4 C17 126.40(10) . . ?
N3 N4 C17 120.72(9) . . ?
N1 C1 C2 112.18(10) . . ?
N1 C1 H1 123.9 . . ?
C2 C1 H1 123.9 . . ?
C3 C2 C1 105.20(10) . . ?
C3 C2 H2 127.4 . . ?
C1 C2 H2 127.4 . . ?
N2 C3 C2 106.01(10) . . ?
N2 C3 C4 123.10(9) . . ?
C2 C3 C4 130.89(11) . . ?
C3 C4 C5 111.82(9) . . ?
C3 C4 H4A 109.3 . . ?
C5 C4 H4A 109.3 . . ?
C3 C4 H4B 109.3 . . ?
C5 C4 H4B 109.3 . . ?
H4A C4 H4B 107.9 . . ?
C4 C5 C6 115.73(10) . . ?
C4 C5 H5A 108.3 . . ?
C6 C5 H5A 108.3 . . ?
C4 C5 H5B 108.3 . . ?
C6 C5 H5B 108.3 . . ?
H5A C5 H5B 107.4 . . ?
C5 C6 C7 110.26(9) . . ?
C5 C6 H6A 109.6 . . ?
C7 C6 H6A 109.6 . . ?
C5 C6 H6B 109.6 . . ?
C7 C6 H6B 109.6 . . ?
H6A C6 H6B 108.1 . . ?
C8 C7 C6 115.81(10) . . ?
C8 C7 H7A 108.3 . . ?
C6 C7 H7A 108.3 . . ?
C8 C7 H7B 108.3 . . ?
C6 C7 H7B 108.3 . . ?
H7A C7 H7B 107.4 . . ?
C9 C8 C7 111.38(9) . . ?
C9 C8 H8A 109.4 . . ?
C7 C8 H8A 109.4 . . ?
C9 C8 H8B 109.4 . . ?
C7 C8 H8B 109.4 . . ?
H8A C8 H8B 108.0 . . ?
N4 C9 C10 105.70(10) . . ?
N4 C9 C8 122.89(10) . . ?
C10 C9 C8 131.41(11) . . ?
C9 C10 C11 105.80(10) . . ?
C9 C10 H10 127.1 . . ?
C11 C10 H10 127.1 . . ?
N3 C11 C10 111.98(11) . . ?
N3 C11 H11 124.0 . . ?
C10 C11 H11 124.0 . . ?
O1 C12 N2 105.63(8) . . ?
O1 C12 C13 110.96(9) . . ?
N2 C12 C13 114.11(9) . . ?
O1 C12 H12 108.7 . . ?
N2 C12 H12 108.7 . . ?
C13 C12 H12 108.7 . . ?
C12 C13 C14 108.38(9) . . ?
C12 C13 H13A 110.0 . . ?
C14 C13 H13A 110.0 . . ?
C12 C13 H13B 110.0 . . ?
C14 C13 H13B 110.0 . . ?
H13A C13 H13B 108.4 . . ?
C15 C14 C13 110.20(10) . . ?
C15 C14 H14A 109.6 . . ?
C13 C14 H14A 109.6 . . ?
C15 C14 H14B 109.6 . . ?
C13 C14 H14B 109.6 . . ?
H14A C14 H14B 108.1 . . ?
C16 C15 C14 110.74(11) . . ?
C16 C15 H15A 109.5 . . ?
C14 C15 H15A 109.5 . . ?
C16 C15 H15B 109.5 . . ?
C14 C15 H15B 109.5 . . ?
H15A C15 H15B 108.1 . . ?
O1 C16 C15 112.10(10) . . ?
O1 C16 H16A 109.2 . . ?
C15 C16 H16A 109.2 . . ?
O1 C16 H16B 109.2 . . ?
C15 C16 H16B 109.2 . . ?
H16A C16 H16B 107.9 . . ?
O2 C17 N4 105.89(8) . . ?
O2 C17 C18 111.48(9) . . ?
N4 C17 C18 113.20(9) . . ?
O2 C17 H17 108.7 . . ?
N4 C17 H17 108.7 . . ?
C18 C17 H17 108.7 . . ?
C17 C18 C19 108.60(10) . . ?
C17 C18 H18A 110.0 . . ?
C19 C18 H18A 110.0 . . ?
C17 C18 H18B 110.0 . . ?
C19 C18 H18B 110.0 . . ?
H18A C18 H18B 108.4 . . ?
C20 C19 C18 110.59(10) . . ?
C20 C19 H19A 109.5 . . ?
C18 C19 H19A 109.5 . . ?
C20 C19 H19B 109.5 . . ?
C18 C19 H19B 109.5 . . ?
H19A C19 H19B 108.1 . . ?
C21 C20 C19 110.17(10) . . ?
C21 C20 H20A 109.6 . . ?
C19 C20 H20A 109.6 . . ?
C21 C20 H20B 109.6 . . ?
C19 C20 H20B 109.6 . . ?
H20A C20 H20B 108.1 . . ?
O2 C21 C20 111.78(10) . . ?
O2 C21 H21A 109.3 . . ?
C20 C21 H21A 109.3 . . ?
O2 C21 H21B 109.3 . . ?
C20 C21 H21B 109.3 . . ?
H21A C21 H21B 107.9 . . ?
loop_
_geom_bond_atom_site_label_1
_geom_bond_atom_site_label_2
_geom_bond_distance
_geom_bond_site_symmetry_2
_geom_bond_publ_flag
O1 C16 1.4334(13) . ?
O1 C12 1.4357(13) . ?
O2 C17 1.4297(12) . ?
O2 C21 1.4372(13) . ?
N1 C1 1.3325(15) . ?
N1 N2 1.3669(12) . ?
N2 C3 1.3591(14) . ?
N2 C12 1.4452(13) . ?
N3 C11 1.3268(16) . ?
N3 N4 1.3670(14) . ?
N4 C9 1.3613(14) . ?
N4 C17 1.4464(13) . ?
C1 C2 1.4029(17) . ?
C1 H1 0.9500 . ?
C2 C3 1.3812(15) . ?
C2 H2 0.9500 . ?
C3 C4 1.5034(15) . ?
C4 C5 1.5170(16) . ?
C4 H4A 0.9900 . ?
C4 H4B 0.9900 . ?
C5 C6 1.5202(16) . ?
C5 H5A 0.9900 . ?
C5 H5B 0.9900 . ?
C6 C7 1.5264(17) . ?
C6 H6A 0.9900 . ?
C6 H6B 0.9900 . ?
C7 C8 1.5197(16) . ?
C7 H7A 0.9900 . ?
C7 H7B 0.9900 . ?
C8 C9 1.4999(16) . ?
C8 H8A 0.9900 . ?
C8 H8B 0.9900 . ?
C9 C10 1.3726(16) . ?
C10 C11 1.3976(18) . ?
C10 H10 0.9500 . ?
C11 H11 0.9500 . ?
C12 C13 1.5104(16) . ?
C12 H12 1.0000 . ?
C13 C14 1.5356(15) . ?
C13 H13A 0.9900 . ?
C13 H13B 0.9900 . ?
C14 C15 1.5241(18) . ?
C14 H14A 0.9900 . ?
C14 H14B 0.9900 . ?
C15 C16 1.5117(19) . ?
C15 H15A 0.9900 . ?
C15 H15B 0.9900 . ?
C16 H16A 0.9900 . ?
C16 H16B 0.9900 . ?
C17 C18 1.5075(16) . ?
C17 H17 1.0000 . ?
C18 C19 1.5318(15) . ?
C18 H18A 0.9900 . ?
C18 H18B 0.9900 . ?
C19 C20 1.5252(16) . ?
C19 H19A 0.9900 . ?
C19 H19B 0.9900 . ?
C20 C21 1.5091(18) . ?
C20 H20A 0.9900 . ?
C20 H20B 0.9900 . ?
C21 H21A 0.9900 . ?
C21 H21B 0.9900 . ?
loop_
_geom_torsion_atom_site_label_1
_geom_torsion_atom_site_label_2
_geom_torsion_atom_site_label_3
_geom_torsion_atom_site_label_4
_geom_torsion
_geom_torsion_site_symmetry_1
_geom_torsion_site_symmetry_2
_geom_torsion_site_symmetry_3
_geom_torsion_site_symmetry_4
_geom_torsion_publ_flag
C1 N1 N2 C3 0.63(12) . . . . ?
C1 N1 N2 C12 174.22(9) . . . . ?
C11 N3 N4 C9 0.77(13) . . . . ?
C11 N3 N4 C17 174.91(10) . . . . ?
N2 N1 C1 C2 -0.16(13) . . . . ?
N1 C1 C2 C3 -0.33(14) . . . . ?
N1 N2 C3 C2 -0.85(12) . . . . ?
C12 N2 C3 C2 -174.06(9) . . . . ?
N1 N2 C3 C4 178.87(9) . . . . ?
C12 N2 C3 C4 5.65(16) . . . . ?
C1 C2 C3 N2 0.68(12) . . . . ?
C1 C2 C3 C4 -179.00(11) . . . . ?
N2 C3 C4 C5 155.80(10) . . . . ?
C2 C3 C4 C5 -24.56(16) . . . . ?
C3 C4 C5 C6 173.89(10) . . . . ?
C4 C5 C6 C7 175.51(10) . . . . ?
C5 C6 C7 C8 172.35(10) . . . . ?
C6 C7 C8 C9 176.42(9) . . . . ?
N3 N4 C9 C10 -1.22(13) . . . . ?
C17 N4 C9 C10 -174.96(10) . . . . ?
N3 N4 C9 C8 178.18(10) . . . . ?
C17 N4 C9 C8 4.44(17) . . . . ?
C7 C8 C9 N4 171.13(10) . . . . ?
C7 C8 C9 C10 -9.64(18) . . . . ?
N4 C9 C10 C11 1.13(13) . . . . ?
C8 C9 C10 C11 -178.20(12) . . . . ?
N4 N3 C11 C10 0.00(14) . . . . ?
C9 C10 C11 N3 -0.72(15) . . . . ?
C16 O1 C12 N2 -172.62(9) . . . . ?
C16 O1 C12 C13 63.23(12) . . . . ?
C3 N2 C12 O1 73.08(12) . . . . ?
N1 N2 C12 O1 -99.62(11) . . . . ?
C3 N2 C12 C13 -164.77(10) . . . . ?
N1 N2 C12 C13 22.52(14) . . . . ?
O1 C12 C13 C14 -60.36(12) . . . . ?
N2 C12 C13 C14 -179.53(9) . . . . ?
C12 C13 C14 C15 54.40(13) . . . . ?
C13 C14 C15 C16 -51.60(14) . . . . ?
C12 O1 C16 C15 -59.44(14) . . . . ?
C14 C15 C16 O1 53.94(14) . . . . ?
C21 O2 C17 N4 -173.62(9) . . . . ?
C21 O2 C17 C18 62.86(12) . . . . ?
C9 N4 C17 O2 77.13(12) . . . . ?
N3 N4 C17 O2 -96.14(11) . . . . ?
C9 N4 C17 C18 -160.44(10) . . . . ?
N3 N4 C17 C18 26.29(14) . . . . ?
O2 C17 C18 C19 -59.08(12) . . . . ?
N4 C17 C18 C19 -178.34(9) . . . . ?
C17 C18 C19 C20 53.51(14) . . . . ?
C18 C19 C20 C21 -52.01(15) . . . . ?
C17 O2 C21 C20 -60.42(13) . . . . ?
C19 C20 C21 O2 55.13(14) . . . . ?
