#------------------------------------------------------------------------------
#$Date: 2021-10-06 19:16:48 +0300 (Wed, 06 Oct 2021) $
#$Revision: 269787 $
#$URL: file:///home/coder/svn-repositories/cod/cif/7/15/82/7158270.cif $
#------------------------------------------------------------------------------
#
# This file is available in the Crystallography Open Database (COD),
# http://www.crystallography.net/
#
# All data on this site have been placed in the public domain by the
# contributors.
#
data_7158270
loop_
_publ_author_name
'Al Isawi, Wisam A.'
'Salome, Austin Z.'
'Ahmed, Basil M.'
'Zeller, Matthias'
'Mezei, Gellert'
_publ_section_title
;
 Selective binding of anions by rigidified nanojars: sulfate <i>vs.</i>
 carbonate.
;
_journal_issue                   35
_journal_name_full               'Organic &amp; biomolecular chemistry'
_journal_page_first              7641
_journal_page_last               7654
_journal_paper_doi               10.1039/d1ob01318a
_journal_volume                  19
_journal_year                    2021
_chemical_formula_sum            'C20 H30 N4 O2'
_chemical_formula_weight         358.48
_space_group_crystal_system      monoclinic
_space_group_IT_number           14
_space_group_name_Hall           '-P 2ybc'
_space_group_name_H-M_alt        'P 1 21/c 1'
_atom_sites_solution_hydrogens   geom
_atom_sites_solution_primary     direct
_atom_sites_solution_secondary   difmap
_audit_creation_method           SHELXL-2018/3
_audit_update_record
;
2021-06-18 deposited with the CCDC.	2021-08-18 downloaded from the CCDC.
;
_cell_angle_alpha                90
_cell_angle_beta                 97.570(3)
_cell_angle_gamma                90
_cell_formula_units_Z            2
_cell_length_a                   16.5743(11)
_cell_length_b                   4.6460(3)
_cell_length_c                   12.7547(9)
_cell_measurement_reflns_used    6558
_cell_measurement_temperature    150(2)
_cell_measurement_theta_max      33.1626
_cell_measurement_theta_min      2.4794
_cell_volume                     973.61(11)
_computing_cell_refinement       'SAINT V8.40B (Bruker, 2020)'
_computing_data_collection       'Apex3 v2019.11-0 (Bruker, 2020)'
_computing_data_reduction        'SAINT V8.40B (Bruker, 2020)'
_computing_structure_refinement
;  
SHELXL-2018/3 (Sheldrick, 2015, 2018), 
SHELXLE Rev1231(H\"ubschle et al., 2011)
;
_computing_structure_solution    'SHELXS (Sheldrick, 2008)'
_diffrn_ambient_temperature      150(2)
_diffrn_detector_area_resol_mean 7.4074
_diffrn_measured_fraction_theta_full 0.991
_diffrn_measured_fraction_theta_max 0.979
_diffrn_measurement_device_type
;
Bruker AXS D8 Quest diffractometer with PhotonII charge-integrating pixel 
array detector (CPAD)
;
_diffrn_measurement_method       'omega and phi scans'
_diffrn_radiation_monochromator  'Triumph curved graphite crystal'
_diffrn_radiation_type           MoK\a
_diffrn_radiation_wavelength     0.71073
_diffrn_reflns_av_R_equivalents  0.0496
_diffrn_reflns_av_unetI/netI     0.0348
_diffrn_reflns_Laue_measured_fraction_full 0.991
_diffrn_reflns_Laue_measured_fraction_max 0.979
_diffrn_reflns_limit_h_max       25
_diffrn_reflns_limit_h_min       -24
_diffrn_reflns_limit_k_max       6
_diffrn_reflns_limit_k_min       -7
_diffrn_reflns_limit_l_max       18
_diffrn_reflns_limit_l_min       -19
_diffrn_reflns_number            21842
_diffrn_reflns_point_group_measured_fraction_full 0.991
_diffrn_reflns_point_group_measured_fraction_max 0.979
_diffrn_reflns_theta_full        25.242
_diffrn_reflns_theta_max         33.217
_diffrn_reflns_theta_min         3.297
_diffrn_source                   'fine focus sealed tube X-ray source'
_diffrn_source_current           '30 mA'
_diffrn_source_voltage           '50 kV'
_exptl_absorpt_coefficient_mu    0.081
_exptl_absorpt_correction_T_max  0.7465
_exptl_absorpt_correction_T_min  0.6280
_exptl_absorpt_correction_type   multi-scan
_exptl_absorpt_process_details
;
 SADABS 2016/2: Krause, L., Herbst-Irmer, R., Sheldrick G.M. & Stalke D.,
 J. Appl. Cryst. 48 (2015) 3-10
;
_exptl_crystal_colour            colourless
_exptl_crystal_density_diffrn    1.223
_exptl_crystal_description       plate
_exptl_crystal_F_000             388
_exptl_crystal_recrystallization_method
'Re-crystallisation from solvent: Heptane, Ethyl Acetate'
_exptl_crystal_size_max          0.450
_exptl_crystal_size_mid          0.430
_exptl_crystal_size_min          0.170
_refine_diff_density_max         0.301
_refine_diff_density_min         -0.193
_refine_diff_density_rms         0.033
_refine_ls_extinction_method     none
_refine_ls_goodness_of_fit_ref   1.034
_refine_ls_hydrogen_treatment    constr
_refine_ls_matrix_type           full
_refine_ls_number_parameters     164
_refine_ls_number_reflns         3653
_refine_ls_number_restraints     48
_refine_ls_restrained_S_all      1.032
_refine_ls_R_factor_all          0.0699
_refine_ls_R_factor_gt           0.0455
_refine_ls_shift/su_max          0.001
_refine_ls_shift/su_mean         0.000
_refine_ls_structure_factor_coef Fsqd
_refine_ls_weighting_details
'w=1/[\s^2^(Fo^2^)+(0.0628P)^2^+0.0939P] where P=(Fo^2^+2Fc^2^)/3'
_refine_ls_weighting_scheme      calc
_refine_ls_wR_factor_gt          0.1177
_refine_ls_wR_factor_ref         0.1316
_reflns_Friedel_coverage         0.000
_reflns_number_gt                2575
_reflns_number_total             3653
_reflns_threshold_expression     'I > 2\s(I)'
_cod_data_source_file            d1ob01318a2.cif
_cod_data_source_block           Mezei11_0m
_cod_depositor_comments
'Adding full bibliography for 7158269--7158271.cif.'
_cod_original_sg_symbol_H-M      'P 21/c'
_cod_database_code               7158270
_shelx_shelxl_version_number     2018/3
_shelx_space_group_comment
;
The symmetry employed for this shelxl refinement is uniquely defined
by the following loop, which should always be used as a source of
symmetry information in preference to the above space-group names.
They are only intended as comments.
;
_shelx_estimated_absorpt_t_min   0.965
_shelx_estimated_absorpt_t_max   0.986
_shelx_res_file
;
TITL Mezei11_0m in P2(1)/c
    Mezei11_0m.res
    created by SHELXL-2018/3 at 20:23:29 on 26-Mar-2021
CELL 0.71073  16.57430   4.64600  12.75470  90.0000  97.5698  90.0000
ZERR    2.00   0.00110   0.00030   0.00090   0.0000   0.0027   0.0000
LATT  1
SYMM -X, 0.5+Y, 0.5-Z
SFAC C H N O
UNIT 40 60 8 4
LIST 6 ! automatically inserted. Change 6 to 4 for CHECKCIF!!
TEMP -123.150
SIZE 0.45 0.43 0.17

L.S. 4
BOND $H
ACTA
CONF
FMAP 2
PLAN 20
EADP C6 C6B
EXYZ C6 C6B
SIMU 0.01 C6 > O1

WGHT    0.062800    0.093900
FVAR       1.71369   0.58546
N1    3    0.261090    0.378588    0.147584    11.00000    0.04660    0.05006 =
         0.03472    0.01324   -0.00110   -0.00392
N2    3    0.278739    0.568161    0.072096    11.00000    0.03472    0.03730 =
         0.02808    0.00462   -0.00385   -0.00285
C1    1    0.483039    0.904537    0.040126    11.00000    0.03391    0.03915 =
         0.03268   -0.00010   -0.01053   -0.00594
AFIX  23
H1A   2    0.491516    0.999101    0.110271    11.00000   -1.20000
H1B   2    0.513098    0.719866    0.045881    11.00000   -1.20000
AFIX   0
C2    1    0.392535    0.844571    0.009659    11.00000    0.03342    0.03928 =
         0.03181    0.00264   -0.00979   -0.00614
AFIX  23
H2A   2    0.362431    1.029043    0.006884    11.00000   -1.20000
H2B   2    0.383985    0.758811   -0.062000    11.00000   -1.20000
AFIX   0
C3    1    0.358485    0.646486    0.084916    11.00000    0.03491    0.03437 =
         0.02860   -0.00077   -0.00746   -0.00205
C4    1    0.394078    0.503991    0.173956    11.00000    0.04385    0.04582 =
         0.03204    0.00390   -0.01169   -0.00048
AFIX  43
H4    2    0.449401    0.512854    0.204844    11.00000   -1.20000
AFIX   0
C5    1    0.331602    0.343829    0.209155    11.00000    0.05333    0.05126 =
         0.03321    0.01147   -0.00597    0.00032
AFIX  43
H5    2    0.338670    0.223980    0.270022    11.00000   -1.20000
AFIX   0
PART 1 21
C6    1    0.217440    0.659636   -0.012206    21.00000    0.03086    0.03514 =
         0.02913    0.00281   -0.00285   -0.00042
AFIX  13
H6    2    0.225933    0.868536   -0.026151    21.00000   -1.20000
AFIX   0
C7    1    0.130893    0.618645    0.011899    21.00000    0.02876    0.06741 =
         0.03386    0.00734    0.00465   -0.00349
AFIX  23
H7A   2    0.122070    0.733510    0.074769    21.00000   -1.20000
H7B   2    0.121345    0.413481    0.027246    21.00000   -1.20000
AFIX   0
C8    1    0.071838    0.716119   -0.084035    21.00000    0.02604    0.07571 =
         0.04955    0.01801    0.00090    0.00104
AFIX  23
H8A   2    0.015647    0.662192   -0.073664    21.00000   -1.20000
H8B   2    0.074103    0.928270   -0.090302    21.00000   -1.20000
AFIX   0
C9    1    0.092871    0.578813   -0.185798    21.00000    0.03631    0.06835 =
         0.04062    0.00941   -0.00982   -0.00290
AFIX  23
H9A   2    0.079263    0.371304   -0.186125    21.00000   -1.20000
H9B   2    0.059930    0.669527   -0.247404    21.00000   -1.20000
AFIX   0
C10   1    0.182240    0.614943   -0.195291    21.00000    0.03430    0.07344 =
         0.02735    0.00391   -0.00371    0.01098
AFIX  23
H10A  2    0.195170    0.513654   -0.259304    21.00000   -1.20000
H10B  2    0.194660    0.821745   -0.202867    21.00000   -1.20000
AFIX   0
O1    4    0.231697    0.500484   -0.103307    21.00000    0.03461    0.05372 =
         0.02640   -0.00363   -0.00402    0.01023
PART 2 -21
SAME C6 > O1
C6B   1    0.217440    0.659636   -0.012206   -21.00000    0.03086    0.03514 =
         0.02913    0.00281   -0.00285   -0.00042
AFIX  13
H6B   2    0.235769    0.844175   -0.041795   -21.00000   -1.20000
AFIX   0
C7B   1    0.136041    0.708968    0.023700   -21.00000    0.04289    0.06286 =
         0.03842   -0.00903   -0.00693    0.00701
AFIX  23
H7C   2    0.140194    0.862245    0.078065   -21.00000   -1.20000
H7D   2    0.117126    0.530498    0.055172   -21.00000   -1.20000
AFIX   0
C8B   1    0.075503    0.798472   -0.072314   -21.00000    0.03883    0.05366 =
         0.04908   -0.00468   -0.00291    0.00695
AFIX  23
H8C   2    0.020238    0.813105   -0.051305   -21.00000   -1.20000
H8D   2    0.090738    0.990132   -0.097374   -21.00000   -1.20000
AFIX   0
C9B   1    0.074978    0.582017   -0.160910   -21.00000    0.03820    0.05754 =
         0.03722    0.00266   -0.01118    0.00525
AFIX  23
H9C   2    0.051981    0.397436   -0.139817   -21.00000   -1.20000
H9D   2    0.040381    0.653544   -0.224795   -21.00000   -1.20000
AFIX   0
C10B  1    0.160584    0.535228   -0.185269   -21.00000    0.05138    0.07103 =
         0.02719   -0.00154   -0.00575    0.01233
AFIX  23
H10C  2    0.160357    0.385598   -0.240569   -21.00000   -1.20000
H10D  2    0.181376    0.715848   -0.212993   -21.00000   -1.20000
AFIX   0
O1B   4    0.213611    0.446941   -0.091980   -21.00000    0.04040    0.05109 =
         0.02972   -0.00403   -0.00470    0.01334
PART 0
HKLF 4




REM  Mezei11_0m in P2(1)/c
REM wR2 = 0.1316, GooF = S = 1.034, Restrained GooF = 1.032 for all data
REM R1 = 0.0455 for 2575 Fo > 4sig(Fo) and 0.0699 for all 3653 data
REM 164 parameters refined using 48 restraints

END

WGHT      0.0628      0.0941

REM Highest difference peak  0.301,  deepest hole -0.193,  1-sigma level  0.033
Q1    1   0.3182  0.6341  0.0786  11.00000  0.05    0.30
Q2    1   0.4370  0.8741  0.0266  11.00000  0.05    0.27
Q3    1   0.3862  0.5760  0.1217  11.00000  0.05    0.25
Q4    1   0.3715  0.7406  0.0467  11.00000  0.05    0.23
Q5    1   0.1732  0.6320 -0.0013  11.00000  0.05    0.21
Q6    1   0.1054  0.6781 -0.0403  11.00000  0.05    0.18
Q7    1   0.2453  0.6178  0.0322  11.00000  0.05    0.18
Q8    1   0.2972  0.3527  0.1749  11.00000  0.05    0.17
Q9    1   0.3622  0.4273  0.1884  11.00000  0.05    0.16
Q10   1   0.5000  1.0000  0.0000  10.50000  0.05    0.15
Q11   1   0.2226  0.5874 -0.0581  11.00000  0.05    0.15
Q12   1   0.2226  0.3959  0.1604  11.00000  0.05    0.14
Q13   1   0.2716  0.4843  0.1022  11.00000  0.05    0.14
Q14   1   0.1309  0.6398 -0.1795  11.00000  0.05    0.13
Q15   1   0.3103  0.1752  0.2790  11.00000  0.05    0.12
Q16   1   0.4715  1.1237  0.1215  11.00000  0.05    0.12
Q17   1   0.4997  0.7537  0.0960  11.00000  0.05    0.10
Q18   1   0.1434  0.3407  0.0155  11.00000  0.05    0.10
Q19   1   0.1900  0.5286 -0.0582  11.00000  0.05    0.09
Q20   1   0.2666  0.7182 -0.0610  11.00000  0.05    0.09
;
_shelx_res_checksum              30639
_shelx_hkl_file
;
  -3   0   0 301.338 11.9124   3
   3   0   0 338.001 13.4201   1
   3   0   0 307.890 12.6685   3
  -3   0   0 334.603 11.6598   2
  -3   0   0 339.227 13.4777   1
  -4   0   0 305.023 12.1266   3
   4   0   0 323.421 13.9735   1
   4   0   0 322.807 12.1670   3
  -4   0   0 345.531 14.1176   1
  -4   0   0 334.919 11.7885   2
  -5   0   0 29.5441 1.64554   2
   5   0   0 31.7694 4.21161   1
   5   0   0 27.4373 2.55307   3
  -5   0   0 30.6284 2.51130   3
  -5   0   0 30.9445 4.37822   1
   6   0   0 2650.42 99.1407   1
  -6   0   0 2739.94 99.2723   1
  -7   0   0 6932.31 250.382   1
   8   0   0 2640.66 100.517   1
  -8   0   0 2765.16 100.866   1
   9   0   0 816.159 30.3972   3
   9   0   0 849.654 34.4850   1
  -9   0   0 814.804 29.6008   2
  -9   0   0 811.579 30.3606   3
  -9   0   0 820.485 34.5520   1
 -10   0   0 153.838 6.04831   2
  10   0   0 148.075 11.2488   1
 -10   0   0 151.591 11.0990   1
  10   0   0 163.500 7.35100   3
 -10   0   0 146.801 7.23657   3
 -11   0   0 3.87902 2.47212   3
  11   0   0 3.58088 2.28460   3
 -11   0   0 1.59243 4.77525   1
  11   0   0 2.23773 4.50132   1
 -11   0   0 4.24790 1.19461   2
 -12   0   0 12.4796 1.45885   2
 -12   0   0 1.05797 4.82260   1
 -12   0   0 7.90976 2.77668   3
  12   0   0 8.25934 5.00933   1
  12   0   0 4.26888 2.52703   3
 -12   0   0 8.90147 1.45241   2
  13   0   0 147.744 12.4598   1
 -13   0   0 155.010 8.13322   3
 -13   0   0 161.543 13.2685   1
  13   0   0 162.745 8.19730   3
 -13   0   0 158.410 6.45923   2
 -13   0   0 154.702 6.33410   2
  14   0   0 264.390 17.1458   1
 -14   0   0 266.211 10.0831   2
  14   0   0 263.053 11.8892   3
 -14   0   0 270.992 10.1731   2
 -14   0   0 251.142 11.8250   3
 -14   0   0 260.694 19.4840   1
 -15   0   0 430.068 29.7777   1
 -15   0   0 507.944 17.9226   2
  15   0   0 470.497 25.8079   1
 -15   0   0 477.542 17.7869   2
  15   0   0 493.523 19.7355   3
 -15   0   0 487.335 19.5993   3
  16   0   0 155.339 8.93098   3
 -16   0   0 152.385 6.24069   2
 -16   0   0 159.219 6.46549   2
  16   0   0 143.504 13.7401   1
 -16   0   0 150.400 16.0951   1
 -16   0   0 136.061 9.25306   3
 -17   0   0 47.2078 9.87289   1
  17   0   0 45.0336 9.46675   1
 -17   0   0 38.4407 2.87097   2
 -17   0   0 43.8547 3.09860   2
  17   0   0 45.5289 5.19477   3
 -18   0   0 103.150 13.5623   1
  18   0   0 101.600 7.77951   3
  18   0   0 66.7041 11.1085   1
 -18   0   0 84.9726 4.18528   2
 -18   0   0 84.7894 4.04464   2
  19   0   0 131.975 8.77666   3
 -19   0   0 98.6215 14.7132   1
  19   0   0 103.978 13.6446   1
 -20   0   0 126.764 16.6466   1
  20   0   0 185.578 10.3674   3
  20   0   0 150.379 16.7075   1
 -21   0   0 17.0048 10.8257   1
  21   0   0 25.7802 8.61086   1
  21   0   0 35.3096 5.87956   3
  22   0   0 7.00498 4.60920   3
 -22   0   0 15.3586 10.3803   1
  22   0   0 19.9017 9.37616   1
  23   0   0 124.511 9.86537   3
 -23   0   0 89.1830 17.2328   1
  23   0   0 97.0112 24.6814   1
  24   0   0 46.2049 12.6146   1
 -24   0   0 35.2717 17.2694   1
  25   0   0 6.09933 4.85575   3
   0  -1   0 1.89724 1.59232   1
   0  -1   0 0.40531 0.96649   3
   0  -1   0 2.63254 1.32309   2
   0   1   0 1.98978 1.41445   1
   0   1   0 2.58041 1.12951   2
   2  -1   0 2614.87 93.7374   1
  -2  -1   0 2665.92 94.5630   1
   2  -1   0 2623.41 93.7340   1
  -2   1   0 2548.09 93.5849   1
  -2   1   0 2597.06 93.5674   1
   2   1   0 2592.49 94.3898   1
  -4  -1   0 422.376 18.0410   1
   4  -1   0 405.317 15.0831   2
  -4  -1   0 419.449 15.6213   3
  -4  -1   0 412.051 15.3843   2
   4  -1   0 409.465 16.9268   1
   4   1   0 427.204 15.6646   3
  -4   1   0 419.161 15.1280   2
  -4   1   0 407.705 16.7609   1
  -5  -1   0 0.53979 1.18985   2
   5  -1   0 -0.5368 1.16086   3
  -5  -1   0 -3.1728 3.27708   1
  -5  -1   0 -3.4911 1.94037   3
   5  -1   0 0.07491 0.75167   2
   5  -1   0 0.27989 2.39062   1
  -5   1   0 1.47924 1.19165   3
   5   1   0 0.75832 2.83529   1
   5   1   0 2.64110 2.01616   3
  -5   1   0 1.86735 2.25598   1
  -5   1   0 0.29636 0.92185   2
   6  -1   0 1246.58 45.7053   2
   6  -1   0 1344.62 48.7464   1
  -6  -1   0 1279.73 47.0126   3
  -6  -1   0 1308.92 46.1057   2
   6  -1   0 1354.58 46.0337   3
  -6   1   0 1276.33 45.9676   3
   6   1   0 1338.16 51.6310   1
  -6   1   0 1290.26 45.7464   2
   6   1   0 1319.65 46.5025   3
  -6   1   0 1026.22 47.9026   1
   7  -1   0 561.374 20.7310   3
  -7  -1   0 541.819 21.1975   3
   7  -1   0 537.200 20.2548   2
  -7  -1   0 582.314 24.9931   1
  -7  -1   0 585.218 20.7728   2
   7  -1   0 563.494 23.8613   1
  -7   1   0 578.615 20.3094   2
   7   1   0 531.375 24.5214   1
  -7   1   0 553.281 20.6778   3
   7   1   0 579.727 21.3176   3
   8  -1   0 41.6063 3.40248   3
   8  -1   0 39.3457 2.16794   2
   8  -1   0 42.8182 5.88931   1
  -8  -1   0 38.7149 4.36060   3
  -8  -1   0 43.7113 6.57104   1
  -8  -1   0 43.2556 3.21384   2
  -8   1   0 46.1875 3.27061   3
   8   1   0 36.2909 5.95032   1
  -8   1   0 38.3650 2.24440   2
   8   1   0 40.7080 4.23948   3
  -9  -1   0 15.8742 5.32255   1
   9  -1   0 20.5439 2.50228   3
   9  -1   0 28.0383 5.53020   1
  -9  -1   0 21.8209 3.34675   3
  -9  -1   0 23.7283 2.27038   2
   9  -1   0 19.2084 1.57887   2
   9   1   0 18.6774 5.60969   1
   9   1   0 26.1143 3.22338   3
  -9   1   0 21.5073 2.32387   3
  -9   1   0 18.5903 1.69103   2
  10  -1   0 717.971 30.5743   1
 -10  -1   0 685.388 25.9735   2
 -10  -1   0 701.133 26.7017   3
 -10  -1   0 718.437 31.7983   1
  10  -1   0 716.213 26.2347   3
  10  -1   0 712.839 25.4018   2
  10   1   0 702.659 26.7880   3
  10   1   0 723.787 31.3850   1
 -10   1   0 690.869 26.1446   3
 -10   1   0 703.571 25.4315   2
  11  -1   0 390.409 15.0925   3
 -11  -1   0 388.056 15.7177   3
 -11  -1   0 403.542 21.0227   1
 -11  -1   0 388.243 14.7372   2
 -11  -1   0 380.996 14.6263   2
  11  -1   0 384.000 19.8313   1
  11   1   0 400.223 15.7762   3
  11   1   0 359.997 20.0459   1
 -11   1   0 386.162 15.0070   3
 -11   1   0 370.180 14.0299   2
  12  -1   0 260.517 10.9416   3
 -12  -1   0 257.207 11.6280   3
  12  -1   0 255.719 15.9360   1
 -12  -1   0 264.198 17.0366   1
 -12  -1   0 264.315 10.4445   2
 -12  -1   0 257.734 10.2659   2
 -12   1   0 245.390 16.2388   1
 -12   1   0 250.435 9.53965   2
 -12   1   0 259.752 10.8246   3
  12   1   0 272.166 11.8336   3
  12   1   0 241.437 15.9546   1
 -13  -1   0 313.376 19.2897   1
 -13  -1   0 291.169 11.6517   2
 -13  -1   0 292.934 13.2902   3
 -13  -1   0 289.275 11.7821   2
  13  -1   0 300.413 12.4022   3
  13  -1   0 272.451 17.2698   1
 -13   1   0 294.069 17.9716   1
  13   1   0 299.655 18.4087   1
  13   1   0 315.672 13.3468   3
 -13   1   0 287.506 10.8231   2
 -13   1   0 296.207 12.2823   3
 -14  -1   0 16.8590 7.63823   1
 -14  -1   0 23.5106 4.25231   3
  14  -1   0 27.7524 3.63008   3
 -14  -1   0 28.3217 2.87214   2
 -14  -1   0 22.8223 2.64020   2
  14  -1   0 25.3973 6.93712   1
  14   1   0 12.6803 6.70620   1
  14   1   0 22.3450 4.70616   3
 -14   1   0 29.8869 7.79706   1
 -14   1   0 26.4401 3.50056   3
 -15  -1   0 251.405 10.0193   2
 -15  -1   0 231.508 18.1163   1
  15  -1   0 223.256 16.2751   1
 -15  -1   0 233.924 9.76785   2
  15  -1   0 237.837 10.9302   3
 -15   1   0 246.722 10.7446   3
 -15   1   0 215.037 16.3030   1
  15   1   0 233.801 11.8551   3
  15   1   0 218.868 16.8128   1
 -16  -1   0 1.61839 2.08253   2
 -16  -1   0 -4.5652 2.27639   2
 -16  -1   0 -0.0994 7.23841   1
  16   1   0 7.64742 5.96641   1
 -16   1   0 4.80601 5.81345   3
 -16   1   0 15.9719 7.25860   1
  16   1   0 2.84454 3.88507   3
 -17  -1   0 41.5663 4.06179   2
 -17  -1   0 29.8738 9.36254   1
  17  -1   0 52.5415 9.84325   1
 -17   1   0 45.6688 5.37795   3
  17   1   0 54.9505 6.93145   3
 -17   1   0 31.7740 8.40594   1
  17   1   0 38.2455 8.86419   1
  18  -1   0 106.056 7.34575   3
 -18  -1   0 93.9822 14.5595   1
 -18  -1   0 99.6400 5.71849   2
  18  -1   0 93.4612 12.7589   1
  18   1   0 107.262 8.41252   3
  18   1   0 80.3192 12.0709   1
 -18   1   0 86.1792 12.5110   1
  19  -1   0 28.7953 4.33385   3
 -19  -1   0 32.3844 3.56842   2
 -19  -1   0 45.4528 11.8230   1
  19  -1   0 22.2507 7.94507   1
  19   1   0 29.0304 5.06984   3
  19   1   0 20.9084 8.39870   1
 -19   1   0 35.8444 10.2034   1
  20  -1   0 25.8605 4.59788   3
  20  -1   0 17.8836 7.18696   1
 -20  -1   0 19.1754 2.92917   2
 -20  -1   0 3.98425 8.86904   1
  20   1   0 17.8851 13.4063   1
  20   1   0 14.5541 4.75501   3
 -20   1   0 24.6652 9.12195   1
  21  -1   0 2.36211 6.64395   1
 -21  -1   0 10.9318 9.11404   1
 -21  -1   0 8.32995 2.44006   2
  21  -1   0 6.06560 3.82435   3
  21   1   0 -8.8942 7.25914   1
 -21   1   0 -7.5811 8.61765   1
  21   1   0 10.2410 4.81848   3
  22  -1   0 86.4680 13.1200   1
 -22  -1   0 81.8192 5.37257   2
 -22  -1   0 73.7235 15.9673   1
 -22  -1   0 80.5805 4.67941   2
  22  -1   0 82.5662 7.80551   3
 -22   1   0 72.2645 13.9787   1
  22   1   0 101.962 9.68941   3
  22   1   0 74.1820 13.0506   1
 -23  -1   0 12.9720 12.5304   1
  23  -1   0 22.8891 9.59719   1
  23  -1   0 16.4862 4.42587   3
 -23  -1   0 19.2692 2.22215   2
 -23  -1   0 20.5816 2.09572   2
  23   1   0 0.31882 8.80555   1
 -23   1   0 1.70259 11.2429   1
  23   1   0 12.7622 8.07436   3
 -24  -1   0 -22.732 15.6165   1
  24  -1   0 3.80693 9.85490   1
  24  -1   0 1.08614 3.60625   3
  24   1   0 -10.375 9.11907   1
  24   1   0 1.42517 4.91155   3
  25   1   0 10.4000 5.38372   3
  25   1   0 8.02826 11.6443   1
   0  -2   0 1562.00 56.9245   3
   0  -2   0 1595.19 58.3511   1
   0  -2   0 1558.98 57.0571   2
   0   2   0 1628.34 56.9886   3
   0   2   0 1604.44 57.7159   1
   0   2   0 1544.15 57.0718   2
   1  -2   0 303.812 11.8587   3
  -1  -2   0 316.147 12.2656   2
   1  -2   0 310.273 13.2245   1
   1  -2   0 314.630 12.1517   2
  -1  -2   0 306.409 13.7440   1
  -1  -2   0 317.801 12.1108   3
  -1   2   0 320.622 12.4483   1
   1   2   0 317.045 13.2530   1
   1   2   0 310.409 12.1685   3
   1   2   0 297.724 12.1990   2
  -1   2   0 323.871 12.2251   2
   2  -2   0 611.786 22.5425   3
   2  -2   0 631.165 23.9545   1
  -2  -2   0 627.383 22.9751   2
  -2  -2   0 649.582 25.1033   1
   2  -2   0 624.448 22.7876   2
  -2  -2   0 611.700 22.9138   3
   2   2   0 602.586 22.9233   2
   2   2   0 582.206 22.9089   3
  -2   2   0 640.683 23.1021   1
  -2   2   0 584.834 22.7785   2
   2   2   0 626.009 24.4493   1
   3  -2   0 450.984 17.0086   2
  -3  -2   0 472.452 19.8262   1
  -3  -2   0 471.821 17.9878   3
   3  -2   0 471.647 18.3402   1
   3  -2   0 444.615 16.7416   3
  -3  -2   0 443.623 17.2732   2
  -3   2   0 461.835 19.4489   1
   3   2   0 440.653 17.2410   2
   3   2   0 454.750 17.3772   3
  -3   2   0 444.162 17.0483   2
  -3   2   0 449.249 17.5105   1
   3   2   0 453.849 19.1842   1
  -4  -2   0 864.113 32.5323   3
  -4  -2   0 889.643 32.4445   2
   4  -2   0 870.605 32.1149   2
  -4  -2   0 906.259 35.4356   1
   4   2   0 865.462 34.8259   1
  -4   2   0 885.961 33.0642   1
   4   2   0 882.596 32.5763   3
  -4   2   0 898.616 32.1778   2
  -5  -2   0 46.2933 6.22556   1
   5  -2   0 56.1563 5.30878   1
   5  -2   0 61.2056 3.34830   2
  -5  -2   0 46.7210 4.37492   3
   5  -2   0 52.1631 3.06692   3
  -5  -2   0 50.7519 4.08989   2
   5   2   0 59.7075 6.51614   1
  -5   2   0 54.5331 3.51549   2
   5   2   0 55.0509 4.43259   3
  -5   2   0 52.7810 4.69752   1
  -6  -2   0 371.784 14.3039   2
   6  -2   0 370.803 16.3411   1
   6  -2   0 360.789 13.6730   2
  -6  -2   0 351.259 14.5000   3
  -6  -2   0 376.217 18.3289   1
   6  -2   0 371.165 13.6062   3
   6   2   0 352.842 14.5132   3
  -6   2   0 341.941 16.3491   1
  -6   2   0 375.614 15.7265   1
  -6   2   0 363.848 13.7675   2
   6   2   0 374.283 17.6729   1
  -7  -2   0 59.4903 8.33501   1
  -7  -2   0 76.3935 4.73796   2
   7  -2   0 77.2612 3.80702   3
   7  -2   0 72.6424 3.74005   2
   7  -2   0 70.0043 6.77852   1
  -7  -2   0 79.7407 5.24234   3
  -7   2   0 75.5696 6.26019   1
   7   2   0 75.4259 5.14079   3
  -7   2   0 72.2768 3.89791   2
   7   2   0 77.6572 8.05005   1
  -7   2   0 75.2226 6.06666   1
  -8  -2   0 254.297 10.5376   3
  -8  -2   0 202.724 12.0112   2
   8  -2   0 234.000 12.5886   1
   8  -2   0 237.298 9.30433   3
   8  -2   0 235.582 9.10877   2
  -8  -2   0 245.734 14.4549   1
  -8   2   0 236.198 12.2843   1
  -8   2   0 234.387 9.23074   2
  -8   2   0 240.352 12.0747   1
   8   2   0 229.878 13.7036   1
   8   2   0 237.986 10.4988   3
   9  -2   0 100.666 4.91409   3
   9  -2   0 102.169 4.43772   2
  -9  -2   0 106.233 5.67624   2
   9  -2   0 91.1298 8.49012   1
  -9  -2   0 106.941 10.6656   1
  -9  -2   0 95.6719 6.35124   3
   9   2   0 93.6928 6.23173   3
  -9   2   0 85.3581 7.87840   1
  -9   2   0 96.2803 7.79295   1
   9   2   0 106.817 9.38964   1
  -9   2   0 108.925 4.66563   2
  10  -2   0 85.9199 4.02240   2
 -10  -2   0 87.5260 6.13693   3
  10  -2   0 87.5787 4.74348   3
  10  -2   0 86.3846 8.37545   1
 -10  -2   0 88.7270 5.45000   2
 -10  -2   0 90.8748 10.1616   1
  10   2   0 93.3567 9.95858   1
  10   2   0 99.0877 7.09655   3
 -10   2   0 91.0429 4.24065   2
 -10   2   0 77.4736 8.24627   1
 -11  -2   0 1.29730 2.35104   2
  11  -2   0 3.17727 1.21168   2
  11  -2   0 4.96867 2.18148   3
 -11  -2   0 5.32008 3.43898   3
 -11  -2   0 1.17884 5.27298   1
  11  -2   0 2.20686 4.32381   1
  11   2   0 6.54240 4.99712   1
 -11   2   0 3.54562 1.41572   2
  11   2   0 -0.9996 3.09152   3
 -11   2   0 -3.0399 4.10617   1
  12  -2   0 4.42368 5.10029   1
  12  -2   0 14.1881 2.68276   3
 -12  -2   0 5.38774 3.94124   3
  12  -2   0 10.3938 1.43022   2
 -12  -2   0 15.1718 7.67603   1
 -12  -2   0 13.2781 2.74452   2
 -12   2   0 13.1657 1.63014   2
  12   2   0 9.05891 3.78090   3
  12   2   0 17.8217 6.72869   1
 -12   2   0 13.2726 5.43911   1
  13  -2   0 13.5203 6.12847   1
  13  -2   0 18.7470 1.96815   2
 -13  -2   0 11.5765 7.60964   1
 -13   2   0 27.6285 2.31805   2
  13   2   0 13.7541 6.58839   1
  13   2   0 24.0906 4.38750   3
 -13   2   0 15.7527 6.28540   1
 -13   2   0 14.2741 2.79577   3
 -14  -2   0 26.3512 3.39180   2
  14  -2   0 33.4782 3.59043   3
 -14  -2   0 37.8053 9.80599   1
  14  -2   0 20.1547 6.19590   1
 -14  -2   0 35.4794 3.61871   2
  14   2   0 48.0326 9.51471   1
 -14   2   0 31.4777 3.36616   3
 -14   2   0 18.3565 6.72858   1
  14   2   0 38.8191 5.43093   3
 -15  -2   0 76.2932 5.61336   2
 -15  -2   0 76.9672 12.6245   1
  15  -2   0 63.9143 9.45672   1
 -15  -2   0 82.7919 6.00485   2
  15  -2   0 79.8935 5.52301   3
  15   2   0 79.8351 7.43760   3
 -15   2   0 61.4974 9.15413   1
  15   2   0 60.2035 9.99244   1
 -15   2   0 78.9736 5.17154   3
 -16  -2   0 95.2780 6.47628   2
  16  -2   0 89.3896 10.5144   1
 -16  -2   0 84.2723 12.5751   1
 -16  -2   0 95.5619 6.10739   2
  16  -2   0 83.1365 6.04763   3
  16   2   0 102.364 8.44811   3
 -16   2   0 79.9837 11.1173   1
 -16   2   0 89.7870 5.81235   3
  17  -2   0 11.6168 5.79044   1
  17  -2   0 0.41149 2.77138   3
 -17  -2   0 2.50799 3.03687   2
 -17  -2   0 2.64165 2.82871   2
 -17  -2   0 -0.2669 7.65905   1
 -17   2   0 5.55645 6.71704   1
  17   2   0 7.07551 6.45111   1
  17   2   0 4.01478 4.33568   3
 -17   2   0 6.17049 2.75605   3
  18  -2   0 46.7249 9.33581   1
 -18  -2   0 43.3440 17.0376   1
  18  -2   0 48.6550 4.70342   3
 -18  -2   0 42.7366 4.10853   2
 -18  -2   0 39.6503 4.19220   2
 -18   2   0 34.1737 8.66356   1
 -18   2   0 36.3892 4.65235   3
  18   2   0 39.9996 6.04430   3
  18   2   0 59.8743 11.3681   1
  19  -2   0 2.31554 2.89979   3
 -19  -2   0 1.24352 2.84765   2
 -19  -2   0 6.21237 8.58616   1
  19  -2   0 -5.7133 5.98359   1
 -19  -2   0 3.74453 2.92436   2
  19   2   0 -4.4416 6.45859   1
 -19   2   0 0.57150 3.08004   3
 -19   2   0 -0.3878 7.08097   1
  19   2   0 1.14726 4.99212   3
 -20  -2   0 2.33415 2.91289   2
 -20  -2   0 0.54449 2.82123   2
  20  -2   0 8.08782 6.67872   1
  20  -2   0 -3.4782 2.77797   3
 -20  -2   0 7.25124 9.90952   1
  20   2   0 -13.415 7.04569   1
 -20   2   0 1.09616 8.12049   1
  20   2   0 5.33815 5.03367   3
 -21  -2   0 39.6981 14.1067   1
  21  -2   0 52.7467 6.06559   3
 -21  -2   0 31.6447 3.95466   2
 -21  -2   0 40.8168 4.19795   2
  21   2   0 38.4803 7.69134   3
  21   2   0 28.6236 9.46930   1
 -21   2   0 35.9732 10.5791   1
 -22  -2   0 17.5148 13.2310   1
  22  -2   0 11.2934 10.0366   1
 -22  -2   0 -0.6426 2.86977   2
  22  -2   0 3.77487 3.28194   3
  22   2   0 6.42444 5.47692   3
 -23  -2   0 -1.5031 2.69984   2
 -23  -2   0 -11.888 14.2012   1
  23  -2   0 1.83253 3.31658   3
  23   2   0 8.41237 5.82718   3
  23   2   0 5.22664 8.93166   1
 -24  -2   0 -7.0806 16.1483   1
  24  -2   0 0.13404 3.27856   3
 -24  -2   0 1.57811 2.58702   2
  24   2   0 7.85904 5.96215   3
   0  -3   0 3.61091 3.19152   1
   0  -3   0 -0.9729 1.83283   3
   0  -3   0 1.35156 1.96497   2
   0   3   0 -3.7080 2.32543   2
   0   3   0 1.95188 1.92167   1
   1  -3   0 171.978 8.00948   2
  -1  -3   0 186.080 10.3774   1
   1  -3   0 173.747 9.66955   1
   1  -3   0 177.242 7.66457   3
  -1  -3   0 176.302 8.19378   2
  -1  -3   0 182.314 7.93625   3
  -1   3   0 175.545 7.43142   1
   1   3   0 183.414 8.08725   3
   1   3   0 183.172 8.37325   2
  -1   3   0 180.515 7.43382   1
   1   3   0 169.809 8.74992   1
  -2  -3   0 20.8776 2.78492   3
   2  -3   0 23.2538 3.85471   1
   2  -3   0 21.9365 2.68428   3
   2  -3   0 19.9779 2.50184   2
  -2  -3   0 27.0495 4.70932   1
  -2  -3   0 34.7411 3.38469   2
   2   3   0 23.9685 3.72986   1
   2   3   0 20.2052 3.29419   2
   2   3   0 28.5376 3.33511   3
   3  -3   0 91.2918 4.62430   3
   3  -3   0 95.7721 5.36385   2
  -3  -3   0 101.732 8.41252   1
   3  -3   0 97.0698 6.83480   1
  -3  -3   0 105.830 5.82803   2
  -3  -3   0 86.6581 5.45702   3
   3   3   0 100.498 5.75647   3
   3   3   0 89.0996 6.82318   1
  -3   3   0 88.6815 5.64610   2
  -4  -3   0 0.29957 2.33557   3
  -4  -3   0 -0.9510 3.38365   1
   4  -3   0 4.38151 2.80468   1
  -4  -3   0 1.49075 2.49161   2
   4  -3   0 -1.4783 1.39617   3
   4  -3   0 -2.1320 3.44003   2
  -4   3   0 -1.9206 1.81836   2
   4   3   0 -3.9915 2.76418   1
   4   3   0 0.45705 2.52019   3
   5  -3   0 10.7491 2.81199   2
   5  -3   0 6.93991 1.66124   3
  -5  -3   0 5.79845 2.96152   3
  -5  -3   0 4.94659 2.38337   2
  -5  -3   0 0.76214 4.30910   1
   5   3   0 7.69123 3.11052   3
  -5   3   0 8.18912 2.27497   2
   5   3   0 6.27682 3.73786   1
  -6  -3   0 228.529 14.1385   1
   6  -3   0 213.589 8.68337   3
  -6  -3   0 216.051 9.95341   2
  -6  -3   0 217.190 10.0814   3
   6  -3   0 219.342 8.73324   3
   6  -3   0 218.472 9.23047   2
  -6   3   0 213.328 9.31935   2
  -6   3   0 218.883 9.41963   1
   6   3   0 214.660 10.0951   3
   6   3   0 220.769 12.8100   1
  -6   3   0 223.020 9.42913   1
  -7  -3   0 33.8590 3.60708   2
   7  -3   0 33.9934 3.37483   2
   7  -3   0 27.3437 2.67347   3
  -7  -3   0 26.6083 3.81739   3
  -7  -3   0 28.5248 6.70796   1
   7  -3   0 30.3468 2.84019   3
   7   3   0 25.7036 4.48338   3
   7   3   0 31.4435 5.93726   1
  -7   3   0 30.5835 4.08788   1
  -7   3   0 30.5061 2.94324   2
  -7   3   0 29.7992 4.09241   1
  -8  -3   0 2.70786 4.83622   1
   8  -3   0 0.04430 1.65978   2
   8  -3   0 0.07583 1.70988   3
  -8  -3   0 1.66513 3.41698   3
  -8  -3   0 -2.1863 2.47886   2
  -8   3   0 -2.1744 2.64990   1
   8   3   0 0.23136 4.02916   1
   8   3   0 0.32983 3.12178   3
  -8   3   0 0.04998 2.77953   1
  -8   3   0 2.35938 2.04809   2
  -9  -3   0 7.94635 2.97141   2
  -9  -3   0 9.64248 3.70981   3
   9  -3   0 11.3224 2.07917   2
   9  -3   0 13.3199 2.11906   3
  -9  -3   0 20.5105 7.09132   1
  -9   3   0 13.4844 3.79828   1
   9   3   0 3.77958 5.05658   1
   9   3   0 20.6365 4.80953   3
  -9   3   0 6.10395 3.52162   1
  -9   3   0 12.2578 2.34370   2
 -10  -3   0 296.088 13.0759   2
 -10  -3   0 308.653 19.7561   1
  10  -3   0 284.165 11.6669   2
  10  -3   0 294.669 16.4431   1
  10  -3   0 294.524 11.6074   3
  10   3   0 305.660 18.1714   1
  10   3   0 313.572 13.7447   3
 -10   3   0 281.242 14.6453   1
 -10   3   0 292.995 11.8579   2
 -10   3   0 297.958 14.6817   1
 -11  -3   0 150.379 8.55078   2
  11  -3   0 143.221 6.72697   3
 -11  -3   0 173.533 15.4670   1
  11  -3   0 145.423 6.61118   2
  11  -3   0 159.577 11.7538   1
  11   3   0 130.739 18.1329   1
  11   3   0 156.922 9.45931   3
 -11   3   0 163.274 10.6375   1
 -11   3   0 157.092 10.1670   1
 -11   3   0 134.950 6.85473   2
  12  -3   0 -1.0561 4.49381   1
  12  -3   0 3.40496 1.66269   2
 -12  -3   0 0.35223 2.79757   2
  12  -3   0 4.08305 2.15917   3
  12   3   0 6.64918 4.47550   3
  12   3   0 4.01897 5.86955   1
 -12   3   0 7.60421 4.38751   1
 -12   3   0 2.83181 4.13808   1
 -12   3   0 2.64141 1.89069   2
  13  -3   0 26.8937 2.84768   3
  13  -3   0 18.8262 6.22760   1
  13  -3   0 21.4193 2.22525   2
 -13  -3   0 27.3783 4.25282   2
 -13  -3   0 23.3138 8.76774   1
  13   3   0 14.0192 7.23999   1
 -13   3   0 12.5685 5.13103   1
 -13   3   0 25.3925 5.76484   1
  13   3   0 28.1442 5.51347   3
 -14  -3   0 12.8322 7.89910   1
 -14  -3   0 9.61763 5.01190   2
  14  -3   0 9.00806 2.43364   3
  14  -3   0 14.6330 6.23499   1
  14  -3   0 2.93417 1.56470   2
 -14   3   0 5.70976 4.58801   1
  14   3   0 5.96878 5.13418   3
 -14   3   0 3.22636 5.04657   1
  14   3   0 11.1008 6.45802   1
  15  -3   0 55.8531 4.36194   3
 -15  -3   0 72.7073 6.56314   2
 -15  -3   0 44.4249 10.4662   1
  15  -3   0 51.0061 9.22143   1
  15  -3   0 46.0360 2.96396   2
 -15   3   0 61.6740 8.58208   1
 -15   3   0 59.7762 8.08272   1
  15   3   0 74.6132 7.41356   3
  15   3   0 56.1127 10.1329   1
 -16  -3   0 90.6279 6.88295   2
  16  -3   0 90.6063 11.6412   1
  16  -3   0 80.7379 5.19114   3
 -16  -3   0 84.3484 7.25450   2
 -16  -3   0 73.1115 12.5899   1
 -16   3   0 80.7695 9.86992   1
  16   3   0 68.6254 10.9114   1
  16   3   0 88.6654 8.74666   3
 -16   3   0 80.8746 10.2931   1
  17  -3   0 1.38862 2.25604   3
 -17  -3   0 -0.4638 3.08900   2
  17  -3   0 -0.1104 5.41588   1
 -17  -3   0 -12.022 8.21731   1
  17   3   0 -11.080 6.06586   1
 -17   3   0 0.65888 5.95802   1
  17   3   0 0.76334 4.68378   3
 -18  -3   0 7.57284 9.08895   1
  18  -3   0 7.14212 6.79107   1
  18  -3   0 -0.3310 2.30432   3
 -18  -3   0 1.12891 3.44238   2
 -18   3   0 4.07020 6.54092   1
 -18   3   0 4.32453 5.32565   1
  18   3   0 4.17627 5.01041   3
  18   3   0 -0.2561 6.62336   1
 -19  -3   0 7.48833 10.2311   1
  19  -3   0 25.5445 3.32177   3
  19  -3   0 27.3499 8.75983   1
 -19  -3   0 20.3375 4.04516   2
 -19   3   0 14.0148 8.06823   1
  19   3   0 28.4391 7.12343   3
 -20  -3   0 50.1519 14.2771   1
 -20  -3   0 67.1786 6.96857   2
  20  -3   0 47.0880 10.4813   1
  20   3   0 57.3467 12.0056   1
  20   3   0 79.4515 9.78791   3
 -20   3   0 50.4666 10.6596   1
  21  -3   0 0.13514 8.09651   1
 -21  -3   0 11.0108 3.92795   2
  21   3   0 8.34692 6.40149   3
 -21   3   0 3.77398 9.60218   1
 -22  -3   0 -9.1416 14.7360   1
  22  -3   0 0.84113 3.12139   3
 -22  -3   0 4.46116 3.74787   2
  22   3   0 4.63173 5.45572   3
 -22   3   0 4.36860 12.9946   1
   0  -4   0 629.147 26.2095   1
   0  -4   0 568.364 22.6310   3
   0  -4   0 586.366 23.0985   2
   1  -4   0 53.4897 7.07458   1
  -1  -4   0 65.5776 8.19893   1
  -1  -4   0 46.6269 4.76372   3
   1  -4   0 52.4392 5.08202   2
  -1  -4   0 54.3290 5.37637   2
   1  -4   0 54.7557 4.50429   3
  -1   4   0 63.6154 5.65570   2
   1   4   0 45.0948 3.79814   1
   2  -4   0 87.7631 8.08748   1
  -2  -4   0 78.6543 12.6159   1
  -2  -4   0 75.6163 6.11712   2
   2  -4   0 77.7991 5.01714   3
  -2  -4   0 77.5738 5.81389   3
   2  -4   0 84.0455 5.95294   2
   2   4   0 79.0190 5.90404   1
   2   4   0 84.8694 6.11232   3
  -2   4   0 95.3985 6.35040   2
   3  -4   0 10.7576 2.69619   2
  -3  -4   0 10.9627 3.47025   3
  -3  -4   0 20.4224 3.65603   2
  -3  -4   0 17.0632 9.18819   1
   3  -4   0 9.65035 4.56897   1
   3  -4   0 11.6747 2.42152   3
   3   4   0 9.88346 3.26189   3
  -3   4   0 8.99982 2.83841   2
   3   4   0 14.3118 3.65026   1
  -4  -4   0 7.41529 2.98112   2
   4  -4   0 7.69170 2.18300   3
   4  -4   0 7.06478 6.57856   1
  -4  -4   0 6.39708 3.53971   3
  -4  -4   0 16.0328 5.74948   1
   4  -4   0 5.48666 2.46996   2
   4   4   0 7.42354 4.05930   1
   4   4   0 4.16178 3.81783   3
  -4   4   0 5.45463 2.81734   2
   5  -4   0 54.2894 4.83651   2
  -5  -4   0 55.6190 7.55263   2
  -5  -4   0 51.9608 7.89988   1
  -5  -4   0 49.2702 5.48259   3
   5  -4   0 43.7371 3.75867   3
   5   4   0 49.7938 6.66931   1
   5   4   0 53.8340 8.53705   3
  -5   4   0 50.4002 5.29293   2
   6  -4   0 55.9151 4.94722   2
  -6  -4   0 56.4677 6.02853   2
   6  -4   0 60.7159 4.13714   3
   6  -4   0 62.5466 4.06015   3
  -6  -4   0 54.2568 8.57295   1
   6   4   0 61.4556 6.56770   3
  -6   4   0 63.6355 5.52484   2
   6   4   0 55.6874 7.43841   1
  -7  -4   0 54.0187 5.26982   2
   7  -4   0 39.3412 4.55894   2
   7  -4   0 45.0208 3.69155   3
  -7  -4   0 46.9578 8.31427   1
  -7   4   0 51.8015 4.41751   2
   7   4   0 43.7277 6.77189   1
   7   4   0 41.6470 5.06261   3
   8  -4   0 42.9774 3.56894   3
   8  -4   0 47.4760 4.53989   2
  -8  -4   0 46.2677 5.03213   2
   8  -4   0 47.4797 3.57201   3
  -8  -4   0 66.3642 10.0521   1
   8   4   0 34.9573 6.77756   1
   8   4   0 38.4157 5.09525   3
  -8   4   0 50.9927 5.13477   2
   9  -4   0 -0.6690 1.76969   3
   9  -4   0 -0.5308 2.18858   2
  -9  -4   0 2.27022 3.74507   2
   9  -4   0 -0.1811 1.64018   3
  -9  -4   0 0.03352 6.16784   1
   9   4   0 -2.3519 4.54975   1
  -9   4   0 1.28155 2.58743   2
   9   4   0 0.97539 4.08367   3
  10  -4   0 2.85079 2.28543   2
  10  -4   0 6.15477 1.91732   3
 -10  -4   0 19.6357 8.16454   1
  10  -4   0 6.72345 1.77444   3
 -10   4   0 5.54689 2.69539   2
  10   4   0 0.70987 3.94137   3
  10   4   0 10.0317 5.51354   1
  11  -4   0 55.9705 3.61232   3
  11  -4   0 54.1169 4.55976   2
  11  -4   0 51.8885 3.36792   3
 -11  -4   0 58.2844 10.4949   1
  11   4   0 58.3705 7.42953   3
  11   4   0 66.5926 9.45249   1
 -12  -4   0 -10.708 7.07382   1
  12  -4   0 -0.3805 1.55309   3
  12  -4   0 0.98371 1.77897   3
  12  -4   0 -1.2703 2.04086   2
  12   4   0 3.92998 4.51880   3
  13  -4   0 99.6435 5.67446   2
  13  -4   0 103.882 4.94667   3
 -13  -4   0 127.602 16.2263   1
  13  -4   0 104.069 4.87990   3
  13   4   0 97.4907 12.4425   1
 -13   4   0 107.048 8.22099   1
  13   4   0 125.993 9.40395   3
 -13   4   0 103.556 6.48851   1
  14  -4   0 3.54548 1.95421   2
  14  -4   0 0.40741 1.60042   3
  14  -4   0 4.72890 1.62395   3
 -14  -4   0 2.32355 7.77194   1
  14   4   0 -3.4177 5.70689   1
  14   4   0 -2.0024 5.01417   3
 -14   4   0 -0.1402 2.92673   1
 -14   4   0 2.17035 3.31944   1
  15  -4   0 9.20037 1.69378   3
 -15  -4   0 7.78877 9.05110   1
  15  -4   0 9.44940 1.66394   3
 -15   4   0 6.53746 4.00997   1
 -15   4   0 6.78203 3.89428   1
  15   4   0 10.6704 5.58642   3
  16  -4   0 2.42699 1.54590   2
  16  -4   0 1.11232 1.42235   3
 -16   4   0 4.19870 4.29140   1
  16   4   0 -3.5258 6.35778   1
 -16   4   0 3.54948 3.98112   1
  16   4   0 3.69140 5.32051   3
  17  -4   0 12.6318 1.90802   3
 -17  -4   0 3.74108 10.6851   1
 -17  -4   0 5.88704 4.16071   2
  17   4   0 1.09725 11.4678   1
 -17   4   0 13.4818 5.26819   1
 -17   4   0 5.60892 5.93843   1
  17   4   0 15.7394 6.18176   3
 -18  -4   0 4.31337 4.04470   2
 -18  -4   0 11.7997 11.3779   1
 -18   4   0 2.32110 5.29737   1
  18   4   0 8.34114 5.12940   3
 -19  -4   0 12.6289 4.35690   2
  19   4   0 21.5625 6.87999   3
 -19   4   0 13.1304 6.18056   1
 -20  -4   0 -2.6024 4.03936   2
  20   4   0 0.97248 5.14119   3
   0  -5   0 -2.7647 4.27580   1
   0  -5   0 -3.5577 2.51934   3
  -1  -5   0 5.35703 4.67612   1
  -1  -5   0 9.20593 3.02046   3
   1  -5   0 5.36341 3.00723   3
   1  -5   0 1.82832 4.31853   1
   2  -5   0 0.26240 3.97156   1
   2  -5   0 7.03795 2.78172   3
  -2  -5   0 -1.0175 4.99119   1
  -3  -5   0 29.9754 6.88371   1
   3  -5   0 18.4966 5.01421   1
   3  -5   0 23.8535 3.33468   3
   4  -5   0 141.367 7.24419   3
  -4  -5   0 174.126 13.5501   1
   4   5   0 133.877 7.91328   1
   5  -5   0 28.1321 5.00099   2
   5  -5   0 33.2415 4.05293   3
  -5  -5   0 53.6236 9.11269   1
   5   5   0 27.3580 4.68121   3
   5   5   0 33.9781 4.95200   1
   6  -5   0 317.469 13.1377   3
  -6  -5   0 328.628 20.1637   1
   6  -5   0 319.498 13.0795   3
   6  -5   0 316.930 14.2988   2
   6   5   0 323.957 16.2536   1
   6   5   0 361.677 15.6247   3
   7  -5   0 20.4034 3.64242   2
   7  -5   0 20.4445 2.77703   3
  -7  -5   0 10.3609 7.72637   1
   7  -5   0 17.6786 2.71220   3
   7   5   0 10.3557 4.54020   1
   7   5   0 15.5878 4.64279   3
  -8  -5   0 62.3067 10.8167   1
   8  -5   0 58.8479 4.05307   3
   8  -5   0 67.9469 5.52897   2
   8  -5   0 60.5954 4.63923   3
   8   5   0 71.3455 7.87012   3
   8   5   0 57.3134 7.48205   1
   9  -5   0 1.03485 1.79592   3
   9  -5   0 -2.1819 2.76156   3
   9  -5   0 0.67704 2.43205   2
  -9  -5   0 12.9722 12.3718   1
   9   5   0 2.74573 4.97469   1
   9   5   0 -1.0243 4.34372   3
  10  -5   0 43.6152 2.85795   3
  10  -5   0 28.7832 3.58031   2
 -10  -5   0 29.0516 11.7673   1
  10  -5   0 34.3815 2.89013   3
  10   5   0 28.4532 7.14205   1
  10   5   0 57.1512 7.14252   3
 -11  -5   0 78.4814 12.9607   1
  11  -5   0 50.2021 5.05080   2
  11   5   0 53.6451 6.85225   3
  11   5   0 38.2093 7.64018   1
  12  -5   0 13.9483 3.32536   2
 -12  -5   0 7.41561 9.97940   1
  12   5   0 13.2826 6.65399   1
  12   5   0 15.9885 5.82241   3
  13   5   0 28.9319 6.26366   3
  14  -5   0 7.48076 2.26048   2
  14   5   0 12.9002 5.71230   3
  15   5   0 2.55417 5.77610   3
  16   5   0 7.96921 6.21438   3
 -17  -5   0 -4.2547 4.45875   2
  17   5   0 3.96287 6.01927   3
 -18  -5   0 0.97996 4.26524   2
  18   5   0 2.08266 5.57562   3
   0  -6   0 23.3237 6.10020   1
  -1  -6   0 10.0923 6.46811   1
   1  -6   0 18.4541 5.35872   1
   2  -6   0 24.1518 5.17836   1
   3  -6   0 14.9529 3.23505   3
   5  -6   0 97.4009 5.74835   3
   6  -6   0 0.10925 2.22848   3
   6  -6   0 5.42029 2.64910   3
   7  -6   0 30.7898 3.48377   3
   7  -6   0 24.9490 3.60919   3
   8  -6   0 2.78067 1.79610   3
  10   6   0 -3.1256 4.93103   3
  11   6   0 45.5819 7.79608   3
  12   6   0 -5.7945 4.97045   3
  13   6   0 26.3014 7.05958   3
   4  -7   0 2.91874 2.83381   3
  25   0  -1 0.28132 4.30013   3
  24   0  -1 -2.3394 8.33290   1
 -24   0   1 -19.242 14.0735   1
  23   0  -1 20.2724 9.67982   1
 -23   0   1 3.19181 11.5126   1
  23   0  -1 10.1279 4.85010   3
  22   0  -1 1.87952 4.58138   3
  22   0  -1 -1.2405 7.57277   1
 -22   0   1 -1.3762 10.2056   1
 -21   0   1 7.58357 9.31311   1
  21   0  -1 3.03859 4.40840   3
  21   0  -1 2.24232 7.72410   1
  20   0  -1 -4.3887 5.30297   1
 -20   0   1 -2.2610 7.64170   1
  20   0  -1 1.02746 3.72156   3
 -19   0   1 2.44229 8.47489   1
  19   0  -1 2.46034 3.95988   3
  19   0  -1 -1.8313 5.51457   1
  18   0  -1 0.37161 5.95628   1
 -18   0   1 -1.1665 7.76279   1
  18   0  -1 -0.5261 3.55227   3
  17   0  -1 5.69161 3.52331   3
 -17   0   1 14.5844 9.45417   1
  17   0  -1 7.56454 5.74352   1
  16   0  -1 -5.7887 3.39610   3
 -16   0   1 0.74774 1.00755   2
  16   0  -1 -0.8385 5.07232   1
 -16   0   1 -5.8232 7.06278   1
 -16   0   1 -1.8306 1.14069   2
 -15   0   1 1.31821 6.22567   1
 -15   0   1 3.38172 3.22813   3
  15   0  -1 6.06679 6.16410   1
  15   0  -1 8.47049 3.58935   3
 -15   0   1 4.51647 1.27392   2
 -15   0   1 2.03866 1.10803   2
  14   0  -1 0.92330 4.68991   1
 -14   0   1 -9.8122 4.68126   1
 -14   0   1 -1.1608 1.06999   2
  14   0  -1 -1.5414 3.33565   3
 -14   0   1 -0.4788 1.14897   2
 -14   0   1 1.99411 3.23750   3
 -13   0   1 2.82967 1.08717   2
 -13   0   1 -0.2265 5.11694   1
 -13   0   1 3.10396 2.83575   3
 -13   0   1 1.93275 1.13702   2
  13   0  -1 0.00922 4.39792   1
  13   0  -1 -0.7822 3.02792   3
 -12   0   1 3.63043 1.10923   2
 -12   0   1 -0.4931 0.95208   2
  12   0  -1 1.25695 2.52969   3
 -12   0   1 1.07785 2.69672   3
  12   0  -1 -0.4942 4.58818   1
 -12   0   1 0.58009 4.61700   1
  11   0  -1 -1.6679 3.55909   1
 -11   0   1 5.35466 4.91893   1
 -11   0   1 1.15364 1.00515   2
 -11   0   1 0.99762 2.32582   3
 -11   0   1 -1.2822 0.86386   2
  11   0  -1 -0.1647 2.41725   3
 -10   0   1 -2.7816 3.72881   1
 -10   0   1 0.23817 0.87972   2
 -10   0   1 1.00185 0.96122   2
 -10   0   1 1.90805 2.19035   3
  10   0  -1 0.38902 2.18000   3
  10   0  -1 1.11117 3.61022   1
  -9   0   1 -0.4456 2.32946   3
  -9   0   1 2.47180 4.63677   1
  -9   0   1 -0.2740 0.86840   2
   9   0  -1 -2.3527 3.43612   1
   9   0  -1 1.40436 2.52791   3
  -9   0   1 0.95278 0.97585   2
  -8   0   1 10.3429 4.64225   1
   8   0  -1 11.4236 4.62363   1
   7   0  -1 3.13067 3.65635   1
  -7   0   1 -0.5935 0.86092   2
   7   0  -1 2.30017 2.04820   3
  -7   0   1 -4.5831 3.28742   1
  -7   0   1 -1.5651 1.93124   3
  -7   0   1 0.31745 0.76687   2
  -6   0   1 0.28788 0.69854   2
   6   0  -1 -0.9946 1.72921   3
  -6   0   1 -0.8245 2.85027   1
  -6   0   1 1.70723 1.61456   3
   6   0  -1 -0.0411 2.80362   1
   5   0  -1 -0.5231 2.46664   1
   5   0  -1 0.74385 1.51625   3
  -5   0   1 0.41157 0.61380   2
  -5   0   1 0.46543 2.64021   1
  -5   0   1 0.09710 1.57034   3
  -4   0   1 8.83207 0.96127   2
  -4   0   1 7.77282 1.53074   3
   4   0  -1 3.13010 1.48836   3
   4   0  -1 4.59552 2.53505   1
  -4   0   1 6.69675 2.68453   1
  -3   0   1 7.74911 1.34952   3
   3   0  -1 16.0597 2.01245   3
   3   0  -1 7.22002 2.53648   1
  -3   0   1 8.61691 0.85248   2
  -3   0   1 5.30711 2.41384   1
   2   0  -1 1.36760 1.58694   1
  -2   0   1 2.35649 0.85257   3
  -2   0   1 0.51476 0.34290   2
   2   0  -1 2.51316 0.40491   2
   1   0  -1 -0.6731 0.39627   3
  -1   0  -1 -1.5776 0.82481   1
  -1   0  -1 -0.5904 0.31151   2
  -1   0  -1 1.17740 0.77501   3
  -2   0  -1 2.67398 0.62767   2
   2   0   1 1.59694 0.67022   2
   2   0   1 3.14881 1.90313   1
   2   0   1 1.97058 0.79073   3
  -2   0  -1 3.41210 0.82009   3
  -2   0  -1 4.34911 1.83663   1
  -3   0  -1 0.91700 1.08652   3
  -3   0  -1 2.35063 0.89195   2
  -3   0  -1 0.60508 2.23863   1
   3   0   1 2.09998 2.24296   1
   3   0   1 1.76791 1.81529   3
   3   0   1 3.04071 0.84110   2
  -4   0  -1 -0.8443 2.37847   1
   4   0   1 0.44614 1.10900   3
  -4   0  -1 -0.1452 0.84499   2
   4   0   1 -0.0472 0.78286   2
  -4   0  -1 -0.9060 1.14006   3
   4   0   1 -2.1231 2.30025   1
  -5   0  -1 0.27025 0.90415   2
  -5   0  -1 0.11443 1.23782   3
   5   0   1 0.88471 0.82432   2
   5   0   1 2.74017 2.70009   1
  -5   0  -1 0.25360 2.75610   1
   5   0   1 3.30704 1.31142   3
  -6   0  -1 0.56570 1.48246   3
   6   0   1 0.86851 0.97339   2
   6   0   1 0.77296 1.64075   3
   6   0   1 -1.2912 2.87229   1
  -6   0  -1 -0.7153 3.14428   1
  -6   0  -1 -0.4532 0.99497   2
   7   0   1 4.36154 3.92425   1
  -7   0  -1 2.00454 1.91462   3
  -7   0  -1 3.50786 1.25568   2
   7   0   1 3.17077 1.79491   3
  -7   0  -1 2.48106 3.94928   1
  -8   0  -1 -2.0279 3.80498   3
  -8   0  -1 1.99730 4.58440   1
   8   0   1 8.46591 4.21263   1
   8   0   1 3.60681 2.08714   3
  -8   0  -1 2.58716 1.33695   2
  -9   0  -1 4.03123 1.33983   2
  -9   0  -1 4.77879 4.64861   1
   9   0   1 1.02421 4.72944   1
   9   0   1 7.79219 2.43336   3
  10   0   1 0.51203 4.26984   1
 -10   0  -1 0.10652 1.22700   2
 -10   0  -1 -1.6142 4.06547   1
 -10   0  -1 -2.1257 2.05020   3
  10   0   1 0.44563 1.90417   3
 -11   0  -1 -1.4676 2.39867   3
 -11   0  -1 -3.9800 3.99948   1
  11   0   1 1.95041 4.73394   1
 -11   0  -1 -0.6677 1.29631   2
  11   0   1 0.76610 2.27078   3
  12   0   1 -1.4698 4.15632   1
 -12   0  -1 1.44488 1.43217   2
 -12   0  -1 -0.2186 5.05768   1
  12   0   1 3.08042 2.61971   3
 -12   0  -1 2.94058 2.47171   3
 -13   0  -1 2.14939 10.6205   1
  13   0   1 -0.4843 4.82235   1
  13   0   1 -0.1526 2.65386   3
 -13   0  -1 2.43559 3.14205   3
 -13   0  -1 -2.4422 1.50691   2
 -14   0  -1 2.62488 3.19933   3
 -14   0  -1 3.49974 1.76096   2
 -14   0  -1 -1.9566 6.95487   1
  14   0   1 6.33335 3.18851   3
  14   0   1 5.75856 5.87384   1
  15   0   1 7.68310 3.45000   3
 -15   0  -1 6.30147 3.71646   3
 -15   0  -1 7.95477 7.25784   1
  15   0   1 10.7302 6.33557   1
 -15   0  -1 1.65458 1.76173   2
  16   0   1 -2.9622 3.35239   3
 -16   0  -1 -1.4590 6.70198   1
 -16   0  -1 -0.4381 1.60841   2
 -16   0  -1 -1.7309 1.72663   2
 -16   0  -1 0.92939 3.52481   3
  16   0   1 1.45761 5.73777   1
 -17   0  -1 -5.2159 6.87964   1
  17   0   1 -0.6519 3.41412   3
 -17   0  -1 0.66400 1.60418   2
 -17   0  -1 -0.2776 1.75642   2
  17   0   1 -4.5101 4.69039   1
  18   0   1 -1.6202 3.45105   3
 -18   0  -1 0.46528 1.77327   2
 -18   0  -1 11.2959 7.83039   1
  18   0   1 0.66042 5.50013   1
 -18   0  -1 -0.3813 1.61435   2
 -19   0  -1 3.36764 1.80178   2
 -19   0  -1 2.75858 1.74353   2
  19   0   1 -0.2153 5.68081   1
 -19   0  -1 8.08940 7.87228   1
  19   0   1 6.48964 3.84948   3
  20   0   1 1.06441 3.72618   3
 -20   0  -1 0.68146 1.58153   2
 -20   0  -1 -7.7757 8.49387   1
  20   0   1 -12.950 6.19044   1
 -20   0  -1 1.94898 1.54743   2
  21   0   1 -0.8804 7.14743   1
 -21   0  -1 3.61352 8.88650   1
  21   0   1 1.95468 3.79169   3
  22   0   1 2.25068 4.28251   3
 -22   0  -1 0.24816 9.63163   1
  22   0   1 -13.160 11.0179   1
  23   0   1 4.91325 4.65828   3
  23   0   1 11.8125 8.95778   1
 -23   0  -1 -21.984 12.6530   1
 -24   0  -1 -6.9510 16.0968   1
  24   0   1 -9.0777 10.1950   1
  25   0   1 -2.5692 3.72305   3
  25  -1  -1 -5.0055 6.17840   3
  25   1  -1 0.86449 5.13405   3
 -24  -1   1 40.6026 19.9590   1
  24  -1  -1 -10.638 8.63499   1
  24  -1  -1 -3.7891 3.77499   3
  24   1  -1 -20.564 8.60246   1
  24   1  -1 -0.7790 5.45408   3
 -23  -1   1 -1.5639 11.1394   1
  23  -1  -1 -1.9430 3.95290   3
  23  -1  -1 1.14596 8.70654   1
 -23   1   1 5.64476 11.3627   1
  23   1  -1 -2.8073 9.01678   1
  23   1  -1 0.02634 5.89970   3
 -22  -1   1 70.0804 3.74612   2
  22  -1  -1 92.2491 8.10754   3
 -22  -1   1 68.7062 3.72340   2
  22  -1  -1 33.5826 9.41222   1
 -22  -1   1 54.3957 14.0046   1
  22   1  -1 94.0780 9.50688   3
 -22   1   1 24.2224 10.9526   1
  22   1  -1 35.3827 11.5337   1
 -21  -1   1 -0.1466 9.91664   1
 -21  -1   1 6.10508 1.95725   2
  21  -1  -1 2.10360 4.15330   3
  21  -1  -1 13.1506 8.02154   1
 -21  -1   1 3.66562 1.90510   2
 -21   1   1 5.62987 9.01893   1
  21   1  -1 3.89005 7.22741   1
  21   1  -1 0.90336 4.45032   3
 -20  -1   1 14.8695 2.31495   2
  20  -1  -1 15.4629 4.29981   3
  20  -1  -1 19.0963 7.14893   1
 -20  -1   1 19.9061 10.7882   1
 -20  -1   1 14.3626 2.23426   2
 -20   1   1 6.76451 8.45536   1
  20   1  -1 18.3563 5.06790   3
  20   1  -1 21.9831 8.70712   1
 -19  -1   1 6.12916 2.24602   2
  19  -1  -1 6.65809 3.54236   3
  19  -1  -1 4.41710 6.05464   1
 -19  -1   1 1.71022 8.93365   1
 -19  -1   1 5.35963 2.06581   2
  19   1  -1 10.9577 4.34125   3
 -19   1   1 9.62168 7.76163   1
  19   1  -1 15.5253 7.99972   1
 -18  -1   1 23.0221 2.61991   2
  18  -1  -1 21.1740 7.69993   1
 -18  -1   1 21.6439 2.51696   2
  18  -1  -1 31.4741 4.64034   3
 -18  -1   1 5.73008 8.85605   1
  18   1  -1 10.9788 6.89977   1
  18   1  -1 17.5221 4.73997   3
 -18   1   1 10.7528 8.06205   1
 -17  -1   1 12.1039 2.39147   2
 -17  -1   1 10.2325 2.15689   2
 -17  -1   1 6.50499 8.28953   1
  17  -1  -1 10.3838 3.72197   3
 -17   1   1 9.98057 3.73566   3
  17   1  -1 10.3584 6.44198   1
 -17   1   1 11.2602 6.93254   1
  17   1  -1 9.10628 4.12225   3
 -16  -1   1 30.4523 9.65247   1
 -16  -1   1 9.66550 2.10510   2
  16  -1  -1 4.62929 5.79193   1
 -16  -1   1 10.8560 2.30036   2
  16  -1  -1 7.38120 3.37301   3
 -16   1   1 -2.6049 5.90239   1
  16   1  -1 8.20952 6.99396   1
  16   1  -1 5.39899 3.90122   3
 -16   1   1 12.8923 3.35082   3
 -15  -1   1 20.8160 2.55371   2
  15  -1  -1 16.2586 3.47207   3
 -15  -1   1 17.8740 2.38160   2
 -15  -1   1 32.6919 9.73774   1
  15  -1  -1 18.5255 6.50275   1
  15   1  -1 16.1053 4.10734   3
 -15   1   1 16.7258 3.48388   3
 -15   1   1 15.5723 8.50952   1
  15   1  -1 11.9553 6.58347   1
 -14  -1   1 -0.1471 6.15646   1
 -14  -1   1 2.84735 1.85908   2
 -14  -1   1 3.78828 2.03716   2
  14  -1  -1 1.19062 2.81744   3
 -14  -1   1 5.98304 3.66562   3
  14  -1  -1 -2.6107 4.87256   1
  14   1  -1 5.22426 3.60226   3
 -14   1   1 3.23310 3.01701   3
  14   1  -1 2.89606 5.18074   1
 -13  -1   1 13.5113 6.44912   1
  13  -1  -1 8.55972 5.33752   1
 -13  -1   1 16.5585 2.28100   2
 -13  -1   1 17.6792 2.09482   2
 -13  -1   1 14.0725 3.59305   3
  13  -1  -1 16.3388 3.02296   3
 -13   1   1 17.8694 3.17183   3
  13   1  -1 7.88875 5.53544   1
  13   1  -1 12.6296 3.59333   3
 -12  -1   1 9.71671 6.35019   1
 -12  -1   1 9.49148 1.98789   2
  12  -1  -1 11.1368 2.75630   3
  12  -1  -1 9.26276 4.71306   1
 -12  -1   1 11.2643 3.20209   3
  12   1  -1 14.8758 5.65687   1
  12   1  -1 13.8264 3.64816   3
 -12   1   1 9.99137 2.67343   3
 -11  -1   1 37.5240 4.87370   3
 -11  -1   1 35.9822 7.04383   1
  11  -1  -1 45.4920 6.85209   1
  11  -1  -1 40.9446 4.06117   3
 -11  -1   1 38.7610 3.29186   2
 -11   1   1 32.2231 3.76574   3
  11   1  -1 46.1279 4.38741   3
  11   1  -1 44.0648 7.13467   1
  10  -1  -1 238.450 14.1283   1
 -10  -1   1 247.011 11.2179   3
 -10  -1   1 270.509 10.2976   2
 -10  -1   1 272.475 15.8336   1
  10  -1  -1 266.677 10.7680   3
 -10   1   1 262.095 10.6138   3
  10   1  -1 254.698 11.2019   3
  10   1  -1 265.921 15.3725   1
  -9  -1   1 1000.38 41.1393   1
  -9  -1   1 974.178 35.8455   2
   9  -1  -1 1005.07 39.8846   1
  -9  -1   1 969.310 36.4761   3
   9  -1  -1 965.344 36.1202   3
  -9   1   1 964.134 36.1184   3
   9   1  -1 1023.94 41.1949   1
   9   1  -1 1003.12 36.6004   3
   8  -1  -1 1525.05 57.8401   1
   8  -1  -1 1591.51 54.6565   3
  -8  -1   1 1525.14 54.4069   2
  -8  -1   1 1537.69 59.2367   1
  -8  -1   1 1519.93 54.9526   3
   8   1  -1 1513.22 54.9900   3
  -8   1   1 1242.24 57.0040   1
   8   1  -1 1598.34 59.2131   1
  -8   1   1 1539.82 54.5553   3
   7  -1  -1 305.652 11.9700   3
  -7  -1   1 278.333 12.4067   3
   7  -1  -1 305.678 11.0701   2
  -7  -1   1 309.594 11.8209   2
   7  -1  -1 303.361 14.7227   1
  -7   1   1 303.368 14.6032   1
  -7   1   1 316.142 11.9155   3
   7   1  -1 316.822 12.5612   3
  -7   1   1 308.690 11.0988   2
   7   1  -1 322.651 20.7213   1
   6  -1  -1 3496.72 126.320   1
  -6  -1   1 3514.33 127.932   1
   6   1  -1 3475.73 127.444   1
  -6   1   1 3404.08 126.113   1
   5  -1  -1 15.1046 3.01727   1
  -5  -1   1 12.6036 4.04731   1
   5  -1  -1 9.19201 1.61325   3
  -5  -1   1 12.0090 1.62966   2
  -5  -1   1 6.01142 2.14221   3
   5  -1  -1 12.6297 1.30567   2
  -5   1   1 10.0997 1.61249   3
   5   1  -1 10.0791 4.53098   1
   5   1  -1 12.0325 2.12967   3
  -5   1   1 12.9119 2.96669   1
   5   1  -1 12.0476 1.55239   2
  -5   1   1 11.7220 1.02615   2
  -4  -1   1 2142.37 78.4531   1
   4  -1  -1 2069.50 76.9675   1
   4   1  -1 2106.24 78.8918   1
  -4   1   1 2156.63 76.8832   1
  -3  -1   1 58.9551 3.17177   2
   3  -1  -1 53.4736 3.57204   1
  -3  -1   1 58.0090 3.24606   3
  -3  -1   1 45.2777 5.17267   1
   3  -1  -1 47.6508 2.53525   2
  -3   1   1 38.1850 3.27111   1
   3   1  -1 60.1550 3.28462   3
  -3   1   1 53.8002 2.53392   2
   3   1  -1 58.6110 3.07483   2
   3   1  -1 36.1830 4.95109   1
   1   1  -1 4016.10 144.500   1
  -1  -1  -1 1148.94 41.4606   3
   1  -1   1 1150.70 42.5775   1
  -1  -1  -1 1162.91 42.1249   1
  -1   1  -1 1134.81 42.4690   1
   1   1   1 1158.46 41.9839   1
  -2  -1  -1 186.731 7.50310   3
   2  -1   1 187.823 6.78735   3
  -2  -1  -1 188.850 8.74540   1
   2  -1   1 184.383 7.21535   2
   2  -1   1 182.447 8.70957   1
  -2   1  -1 190.842 8.70123   1
   2   1   1 184.307 8.58880   1
  -2   1  -1 185.177 8.45966   1
   2   1   1 188.407 7.54017   3
  -2   1  -1 193.435 7.26454   2
   3  -1   1 161.934 6.04181   3
   3  -1   1 163.786 6.41729   2
  -3  -1  -1 166.411 6.87410   3
  -3  -1  -1 179.810 8.79170   1
   3  -1   1 166.251 8.27706   1
  -3   1  -1 159.972 6.43833   2
  -3   1  -1 160.646 10.9678   1
   3   1   1 165.706 6.85175   3
  -4  -1  -1 278.061 11.0244   3
   4  -1   1 279.674 10.3473   3
   4  -1   1 279.487 10.5414   2
  -4  -1  -1 295.232 13.3462   1
   4  -1   1 294.128 12.8513   1
  -4   1  -1 276.727 12.5959   1
  -4   1  -1 285.471 10.5791   2
   4   1   1 296.921 13.2426   1
  -4   1  -1 278.255 10.3376   3
   4   1   1 280.355 11.0478   3
   5  -1   1 408.714 14.7371   2
  -5  -1  -1 384.326 20.0312   1
  -5  -1  -1 402.452 15.3511   3
   5  -1   1 420.916 17.5070   1
  -5   1  -1 388.268 14.6416   3
  -5   1  -1 407.985 14.7609   2
   5   1   1 390.353 15.3204   3
   5   1   1 412.493 19.4014   1
   6  -1   1 545.059 20.3353   2
  -6  -1  -1 549.739 21.0488   3
  -6  -1  -1 569.072 24.2555   1
   6  -1   1 570.555 23.6106   1
   6  -1   1 563.040 20.4162   3
   6   1   1 587.051 21.1372   3
  -6   1  -1 556.285 20.3907   3
  -6   1  -1 574.907 20.3877   2
   6   1   1 521.924 24.0596   1
  -7  -1  -1 994.960 39.7699   1
   7  -1   1 963.056 35.3790   2
  -7  -1  -1 970.126 36.1700   3
   7  -1   1 988.932 35.5718   3
   7  -1   1 1009.27 39.2022   1
   7   1   1 975.721 39.5803   1
   7   1   1 1003.19 36.2064   3
  -7   1  -1 943.776 35.5149   3
  -7   1  -1 1007.70 35.4332   2
   8  -1   1 456.950 16.6831   3
   8  -1   1 440.762 16.3132   2
   8  -1   1 432.726 20.2996   1
  -8  -1  -1 447.838 16.6908   2
  -8  -1  -1 451.129 21.2819   1
  -8  -1  -1 424.909 17.2575   3
   8   1   1 462.118 21.3297   1
  -8   1  -1 450.612 16.3730   2
   8   1   1 436.110 17.2740   3
  -8   1  -1 455.193 16.6143   3
   9  -1   1 1.61281 1.64266   3
  -9  -1  -1 2.01522 4.12764   1
   9  -1   1 2.31202 3.62682   1
  -9  -1  -1 0.23311 2.25109   3
   9  -1   1 -0.3879 0.99416   2
  -9  -1  -1 0.04472 1.43022   2
  -9   1  -1 2.75164 1.55355   3
   9   1   1 3.98513 4.36152   1
  -9   1  -1 4.29822 4.92029   1
  -9   1  -1 1.51140 1.15322   2
   9   1   1 3.33837 2.44814   3
 -10  -1  -1 33.5153 4.22693   3
 -10  -1  -1 36.3568 7.13013   1
  10  -1   1 39.4728 6.12261   1
  10  -1   1 36.9507 2.29686   2
 -10  -1  -1 38.7647 3.10591   2
  10  -1   1 31.9843 3.28789   3
  10   1   1 41.2838 6.70792   1
  10   1   1 37.4439 4.37550   3
 -10   1  -1 33.4115 5.83618   1
 -10   1  -1 34.6317 2.46887   2
  11  -1   1 10.0886 2.30198   3
 -11  -1  -1 6.69787 5.56156   1
  11  -1   1 9.31693 4.66331   1
 -11  -1  -1 6.22979 2.93090   3
 -11  -1  -1 12.1354 2.03420   2
  11  -1   1 7.08034 1.26633   2
 -11  -1  -1 7.23097 2.03461   2
 -11   1  -1 1.08034 4.92697   1
 -11   1  -1 6.03796 1.40282   2
 -11   1  -1 11.1069 2.28215   3
  11   1   1 5.93228 4.58866   1
  11   1   1 13.7874 3.30108   3
  12  -1   1 473.061 18.0282   3
 -12  -1  -1 475.196 17.7714   2
 -12  -1  -1 458.909 17.6656   2
 -12  -1  -1 504.855 24.9037   1
 -12  -1  -1 449.817 18.7220   3
  12  -1   1 457.583 23.6450   1
 -12   1  -1 451.865 17.8975   3
 -12   1  -1 476.366 17.1763   2
  12   1   1 456.644 18.7605   3
  12   1   1 464.282 23.8586   1
 -12   1  -1 463.451 23.7954   1
 -13  -1  -1 -1.0249 6.77760   1
 -13  -1  -1 7.24796 4.03114   3
 -13  -1  -1 7.04609 2.28632   2
  13  -1   1 3.67885 2.72336   3
  13  -1   1 3.80460 5.08413   1
  13   1   1 -5.1215 3.40822   3
 -13   1  -1 3.85895 1.45171   2
 -13   1  -1 6.99262 2.65162   3
  13   1   1 2.68790 6.09752   1
 -13   1  -1 10.8929 6.75771   1
 -14  -1  -1 910.235 34.0476   3
  14  -1   1 908.849 33.3172   3
 -14  -1  -1 909.488 41.4417   1
 -14  -1  -1 909.650 32.7687   2
  14  -1   1 886.420 40.1974   1
 -14  -1  -1 869.711 34.2440   2
  14   1   1 860.664 40.5185   1
 -14   1  -1 897.372 32.1869   2
 -14   1  -1 903.110 33.2165   3
  14   1   1 891.554 34.8106   3
 -14   1  -1 825.734 39.4995   1
 -15  -1  -1 79.4219 12.6597   1
  15  -1   1 83.0936 6.17999   3
 -15  -1  -1 90.0804 5.61976   2
 -15  -1  -1 79.6578 5.39303   2
 -15   1  -1 93.3081 12.5005   1
 -15   1  -1 81.6038 4.07697   2
 -15   1  -1 86.1747 5.93924   3
  15   1   1 85.1731 7.34481   3
  15   1   1 84.6666 11.4227   1
  16  -1   1 395.490 16.0066   3
  16  -1   1 314.351 24.0706   1
 -16  -1  -1 389.181 24.4250   1
 -16  -1  -1 391.378 15.1507   2
  16   1   1 343.773 22.6741   1
 -16   1  -1 394.380 23.5605   1
  16   1   1 403.663 16.7874   3
 -16   1  -1 387.092 15.6773   3
 -16   1  -1 371.177 14.0683   2
  17  -1   1 28.2145 4.10619   3
  17  -1   1 23.5483 7.19522   1
 -17  -1  -1 25.9845 9.24641   1
 -17  -1  -1 26.1969 3.26724   2
 -17  -1  -1 29.2496 3.29227   2
  17   1   1 43.3805 5.79739   3
 -17   1  -1 29.3890 8.91834   1
 -17   1  -1 34.5878 4.18142   3
  17   1   1 31.4146 8.50578   1
 -18  -1  -1 24.0634 10.0807   1
 -18  -1  -1 29.5418 3.28061   2
  18  -1   1 27.7406 7.91640   1
  18  -1   1 23.9038 3.99888   3
 -18  -1  -1 29.6221 3.28974   2
 -18   1  -1 25.0367 9.28551   1
  18   1   1 28.2647 5.11268   3
  18   1   1 30.4857 8.93980   1
 -19  -1  -1 1.86112 2.42375   2
 -19  -1  -1 9.35431 8.58614   1
  19  -1   1 0.44154 6.09595   1
  19  -1   1 1.45424 3.28014   3
 -19  -1  -1 -0.6599 3.78115   2
  19   1   1 5.89914 4.12928   3
  19   1   1 5.62624 11.4554   1
 -19   1  -1 0.45321 7.65235   1
  20  -1   1 59.9572 10.7761   1
 -20  -1  -1 56.6310 13.2939   1
 -20  -1  -1 60.6609 4.96749   2
  20  -1   1 64.4734 6.60588   3
 -20   1  -1 54.6110 11.0731   1
  20   1   1 47.3766 6.12546   3
  20   1   1 44.4701 10.0847   1
  21  -1   1 33.3515 9.73014   1
 -21  -1  -1 52.3318 13.2432   1
 -21  -1  -1 55.9739 4.62655   2
  21  -1   1 42.1332 5.13892   3
  21   1   1 46.9625 6.58986   3
 -21   1  -1 40.6739 11.6863   1
  21   1   1 63.7975 12.5157   1
 -22  -1  -1 103.719 5.71276   2
 -22  -1  -1 96.6824 18.2671   1
  22  -1   1 101.940 8.13096   3
  22  -1   1 52.7545 11.3485   1
 -22   1  -1 93.6414 15.4528   1
  22   1   1 125.424 10.0340   3
  22   1   1 77.5623 13.6714   1
  23  -1   1 -10.404 7.90193   1
 -23  -1  -1 8.02821 12.9081   1
  23  -1   1 0.09627 3.76397   3
  23   1   1 19.5709 8.85285   1
  23   1   1 1.88760 5.19168   3
 -23   1  -1 7.32746 12.7298   1
 -24  -1  -1 -9.3369 16.6088   1
  24  -1   1 0.36214 3.65695   3
  24   1   1 1.46122 4.51024   3
 -24  -2   1 -0.1966 2.46410   2
  24  -2  -1 3.00707 3.35663   3
 -24  -2   1 17.8030 16.5460   1
  24   2  -1 -3.3235 5.47332   3
 -23  -2   1 20.3372 3.22199   2
 -23  -2   1 -3.5995 14.6148   1
  23  -2  -1 14.3193 4.08235   3
  23  -2  -1 17.6292 12.1798   1
  23   2  -1 19.5667 10.6839   1
  23   2  -1 18.7909 6.26004   3
 -23   2   1 1.07166 14.5757   1
  22  -2  -1 -7.1244 7.02796   1
 -22  -2   1 -7.9842 12.5203   1
  22  -2  -1 -1.0228 3.27322   3
 -22  -2   1 -2.1757 2.80421   2
 -22  -2   1 -1.0980 2.75600   2
  22   2  -1 22.4797 8.68318   1
  22   2  -1 -0.9536 5.62361   3
 -21  -2   1 104.299 6.57934   2
 -21  -2   1 119.378 18.4130   1
 -21  -2   1 100.497 6.72123   2
  21  -2  -1 59.9153 11.2261   1
  21  -2  -1 109.982 7.74914   3
  21   2  -1 125.063 12.4323   3
  21   2  -1 96.4196 14.1603   1
 -20  -2   1 9.71056 3.00194   2
  20  -2  -1 11.0336 3.55230   3
 -20  -2   1 1.52181 10.7689   1
  20  -2  -1 4.05651 6.28724   1
 -20  -2   1 7.62813 2.92375   2
  20   2  -1 6.24528 5.62686   3
  20   2  -1 -1.2472 8.22548   1
 -19  -2   1 28.3130 18.4504   1
 -19  -2   1 3.15129 2.65463   2
 -19  -2   1 1.15445 2.73421   2
  19  -2  -1 7.03635 3.38702   3
  19  -2  -1 4.41688 6.26071   1
  19   2  -1 7.56167 4.86810   3
  19   2  -1 13.8665 7.39526   1
 -18  -2   1 45.9551 11.3903   1
 -18  -2   1 64.9281 5.41323   2
 -18  -2   1 74.3882 5.82330   2
  18  -2  -1 57.7663 10.0411   1
  18  -2  -1 59.3832 6.82579   3
 -18   2   1 53.4953 14.1389   1
  18   2  -1 60.8506 6.75299   3
  18   2  -1 51.9925 11.1526   1
 -18   2   1 60.5146 5.61119   3
 -17  -2   1 35.7410 3.71973   2
  17  -2  -1 27.7979 7.55427   1
 -17  -2   1 32.5185 3.86628   2
  17  -2  -1 44.2282 4.67166   3
 -17  -2   1 33.2182 9.73490   1
  17   2  -1 34.9274 9.53156   1
 -17   2   1 36.6945 4.09686   3
 -17   2   1 45.4181 8.93578   1
  17   2  -1 40.0352 5.98102   3
  16  -2  -1 0.42259 2.93562   3
  16  -2  -1 -3.7841 5.09536   1
 -16  -2   1 -4.7891 6.49381   1
 -16  -2   1 1.44096 2.64558   2
 -16  -2   1 3.61166 2.62318   2
 -16   2   1 -0.2671 2.69702   3
  16   2  -1 4.14148 4.57687   3
 -16   2   1 0.07476 5.99297   1
  16   2  -1 7.04147 6.39930   1
 -15  -2   1 241.051 10.7696   2
  15  -2  -1 233.730 10.7847   3
 -15  -2   1 226.437 18.5186   1
  15  -2  -1 229.980 16.1726   1
  15   2  -1 256.657 12.4460   3
 -15   2   1 227.219 16.6278   1
  15   2  -1 247.213 17.7633   1
 -15   2   1 240.210 10.6395   3
 -14  -2   1 32.9602 9.54741   1
  14  -2  -1 68.5080 9.34993   1
  14  -2  -1 45.5604 5.13114   3
 -14  -2   1 50.3688 5.13286   2
 -14   2   1 49.5785 4.72828   3
  14   2  -1 50.7470 9.94499   1
  14   2  -1 71.3680 6.77398   3
 -14   2   1 38.1475 7.76896   1
 -13  -2   1 860.061 31.4508   2
  13  -2  -1 829.841 31.3309   3
 -13  -2   1 858.442 39.6807   1
  13  -2  -1 840.202 36.6906   1
 -13   2   1 801.193 36.4570   1
  13   2  -1 869.791 32.5502   3
  13   2  -1 807.239 38.6466   1
  12  -2  -1 1226.85 50.7380   1
 -12  -2   1 1308.58 45.8992   2
  12  -2  -1 1226.85 44.6223   2
 -12  -2   1 1111.20 46.7377   3
 -12  -2   1 1262.15 53.5097   1
  12  -2  -1 1315.34 45.7875   3
  12   2  -1 1264.17 52.8674   1
  12   2  -1 1340.44 47.0863   3
 -12   2   1 1184.00 50.7439   1
  11  -2  -1 12.5375 4.93980   1
 -11  -2   1 8.01749 3.57185   3
  11  -2  -1 17.8330 2.76323   3
 -11  -2   1 10.5586 6.27510   1
  11  -2  -1 14.9506 1.32027   2
 -11  -2   1 19.4788 3.02112   2
  11   2  -1 8.71008 3.89853   3
  11   2  -1 18.4143 6.24413   1
 -11   2   1 11.6173 5.79780   1
  10  -2  -1 54.9075 4.05660   3
  10  -2  -1 42.9427 6.30068   1
 -10  -2   1 41.1105 7.65656   1
 -10  -2   1 55.6275 5.47518   3
  10  -2  -1 48.1991 2.63506   2
 -10  -2   1 49.5462 4.50050   2
  10   2  -1 47.6035 5.50454   3
  10   2  -1 51.5939 8.01301   1
  -9  -2   1 5.83060 3.08247   3
  -9  -2   1 6.10139 2.58588   2
  -9  -2   1 4.94331 4.79957   1
   9  -2  -1 6.00135 2.04843   3
   9  -2  -1 -4.3911 3.10730   1
   9  -2  -1 4.19768 1.12806   2
   9   2  -1 4.52946 4.77942   1
  -9   2   1 3.28140 1.23817   2
   9   2  -1 1.51456 2.70044   3
  -8  -2   1 115.877 6.83400   2
   8  -2  -1 130.638 5.74312   3
   8  -2  -1 125.331 5.18351   2
   8  -2  -1 113.218 8.20488   1
  -8  -2   1 130.678 6.80818   3
  -8  -2   1 130.210 10.6168   1
  -8   2   1 124.802 9.16381   1
   8   2  -1 124.277 6.87588   3
  -8   2   1 123.604 5.26880   2
   8   2  -1 123.668 9.95200   1
  -8   2   1 118.346 7.64065   1
  -7  -2   1 19.7121 3.27536   3
   7  -2  -1 15.7664 1.62034   2
   7  -2  -1 16.0975 3.68441   1
  -7  -2   1 18.6578 2.50932   2
  -7  -2   1 14.3007 5.38465   1
   7  -2  -1 17.4851 2.08297   3
  -7   2   1 18.2278 1.75812   2
  -7   2   1 16.7130 3.35233   1
   7   2  -1 20.4499 3.20637   3
  -7   2   1 12.6231 2.98960   1
   7   2  -1 17.2413 4.94870   1
   6  -2  -1 6.03143 1.44417   2
  -6  -2   1 8.02987 2.15991   2
  -6  -2   1 7.18897 4.41746   1
   6  -2  -1 12.3038 3.11371   1
  -6  -2   1 4.78021 2.50409   3
   6  -2  -1 3.83030 1.73384   3
   6   2  -1 5.75432 3.87502   1
  -6   2   1 3.03495 2.85343   1
  -6   2   1 3.26101 2.19292   1
  -6   2   1 5.64392 1.49001   2
   6   2  -1 5.13118 2.46598   3
   6   2  -1 8.38780 2.14786   2
   5  -2  -1 1321.61 48.8663   3
   5  -2  -1 1363.62 50.3424   1
  -5  -2   1 1323.51 49.3452   3
  -5  -2   1 1374.13 49.2347   2
  -5  -2   1 1404.16 53.0830   1
   5  -2  -1 1373.27 48.8305   2
   5   2  -1 1373.63 52.5521   1
   5   2  -1 1301.65 49.1764   2
  -5   2   1 1388.24 49.3112   1
  -5   2   1 1324.44 48.8381   2
  -5   2   1 1379.95 50.9067   1
   5   2  -1 1343.87 49.3776   3
  -4  -2   1 544.927 21.8529   3
   4  -2  -1 591.453 22.5091   1
  -4  -2   1 601.064 25.0649   1
   4  -2  -1 586.282 21.4392   2
  -4  -2   1 578.739 21.8222   2
   4   2  -1 563.641 24.4596   1
   4   2  -1 562.868 21.8837   3
   4   2  -1 611.757 21.8871   2
  -4   2   1 597.595 21.4881   2
  -3  -2   1 205.274 11.1995   1
   3  -2  -1 194.195 7.88517   2
  -3  -2   1 181.209 8.54758   3
  -3  -2   1 190.370 8.30275   2
   3  -2  -1 199.455 8.42682   1
   3   2  -1 182.124 8.22088   3
  -3   2   1 189.308 7.91777   2
   3   2  -1 196.875 8.31419   2
   3   2  -1 202.638 10.6850   1
  -2  -2   1 234.489 9.53174   3
  -2  -2   1 240.615 9.72354   2
   2  -2  -1 240.153 9.48280   2
   2  -2  -1 226.154 9.32237   3
   2  -2  -1 246.043 9.77193   1
  -2  -2   1 252.477 12.2561   1
  -2   2   1 231.505 9.50138   2
   2   2  -1 236.031 11.6280   1
   2   2  -1 219.841 9.64030   2
   2   2  -1 246.398 9.61319   3
  -1  -2   1 1049.14 38.9549   3
   1  -2  -1 1096.33 39.0754   2
  -1  -2   1 1055.45 39.1334   2
  -1  -2   1 1101.52 41.3463   1
   1  -2  -1 1074.87 39.0231   3
   1  -2  -1 1082.97 39.4906   1
  -1   2   1 1080.94 39.0876   2
   1   2  -1 1064.71 38.9925   3
   1   2  -1 1061.19 40.8326   1
   1   2  -1 1091.14 39.1952   2
   0  -2   1 1642.71 59.2125   2
   0  -2  -1 1605.04 59.1456   3
   0  -2   1 1641.52 58.9480   3
   0  -2  -1 1598.04 59.8749   1
   0  -2  -1 1670.24 59.1989   2
   0  -2   1 1671.43 61.1550   1
   0   2  -1 1651.96 60.6800   1
   0   2  -1 1612.66 59.2115   2
   0   2  -1 1680.59 58.9974   3
  -1  -2  -1 156.824 7.26893   2
   1  -2   1 159.529 7.18174   2
  -1  -2  -1 175.276 7.26864   3
   1  -2   1 162.678 6.65100   3
  -1  -2  -1 169.623 8.33493   1
   1  -2   1 173.869 9.13736   1
  -1   2  -1 172.060 6.73316   3
  -1   2  -1 166.895 7.27252   2
   1   2   1 157.721 7.31400   3
  -1   2  -1 166.860 8.58741   1
   1   2   1 167.116 7.56913   1
  -2  -2  -1 1277.76 45.9959   2
   2  -2   1 1254.40 45.8606   2
   2  -2   1 1233.45 47.5717   1
   2  -2   1 1254.52 45.4678   3
  -2  -2  -1 1266.18 47.6702   1
   2   2   1 1252.24 47.0771   1
   2   2   1 1305.57 46.1181   3
  -2   2  -1 1284.11 47.2766   1
  -2   2  -1 1223.80 45.8777   2
  -2   2  -1 1320.97 47.2296   1
   3  -2   1 43.5551 3.29200   2
   3  -2   1 33.8939 2.20360   3
  -3  -2  -1 37.3237 4.80685   1
  -3  -2  -1 38.7669 3.64297   2
  -3  -2  -1 35.2972 3.74607   3
   3  -2   1 38.1736 5.06076   1
   3   2   1 38.4609 3.78821   3
  -3   2  -1 33.1605 4.03592   1
  -3   2  -1 33.0552 4.36355   1
   3   2   1 37.1746 4.82467   1
  -3   2  -1 36.3492 3.39404   2
  -4  -2  -1 61.8415 6.59869   1
   4  -2   1 52.7771 2.63218   3
  -4  -2  -1 53.2156 4.27580   3
   4  -2   1 56.7898 3.60955   2
  -4  -2  -1 54.5541 4.09375   2
   4   2   1 55.8664 4.52220   3
  -4   2  -1 50.3555 5.39531   1
  -4   2  -1 54.6895 5.29097   1
   4   2   1 51.0273 5.58627   1
  -4   2  -1 58.2742 3.75946   2
  -5  -2  -1 34.0611 3.96574   3
  -5  -2  -1 31.2214 5.31419   1
  -5  -2  -1 34.2723 3.55729   2
   5  -2   1 36.4848 2.96274   2
  -5   2  -1 35.1723 4.92336   1
   5   2   1 41.0216 3.78397   3
  -5   2  -1 34.1269 3.20621   2
  -5   2  -1 35.9187 4.88472   1
   5   2   1 34.5493 4.92550   1
   6  -2   1 1.80223 2.98487   1
   6  -2   1 -1.0306 1.33957   2
  -6  -2  -1 -0.4879 2.27142   3
   6  -2   1 0.73121 1.37208   3
  -6  -2  -1 1.98463 1.77108   2
  -6  -2  -1 -4.5688 3.68357   1
  -6   2  -1 1.32530 1.51121   2
  -6   2  -1 0.20548 2.72371   1
  -6   2  -1 1.06693 2.83255   1
   6   2   1 0.03990 3.32405   1
   6   2   1 -0.6423 2.30446   3
  -7  -2  -1 26.7887 5.74571   1
  -7  -2  -1 19.7881 3.33513   3
   7  -2   1 18.4131 1.96626   3
   7  -2   1 19.2095 4.20250   1
   7  -2   1 18.3534 1.85414   2
  -7   2  -1 18.0795 4.05684   1
  -7   2  -1 19.3238 3.99055   1
  -7   2  -1 18.0255 1.97985   2
   7   2   1 16.7756 3.10773   3
   7   2   1 14.4815 4.56724   1
  -8  -2  -1 12.2087 3.08629   3
   8  -2   1 10.5815 1.53418   3
   8  -2   1 11.2034 3.97338   1
  -8  -2  -1 3.20414 1.88455   2
   8  -2   1 7.27472 1.51985   2
  -8  -2  -1 9.18167 4.67490   1
  -8   2  -1 4.55245 3.64863   1
  -8   2  -1 9.22983 3.80546   1
  -8   2  -1 8.90844 1.71278   2
   8   2   1 7.78777 2.75012   3
   8   2   1 6.71226 4.34973   1
   9  -2   1 -1.8595 3.36205   1
   9  -2   1 -1.0297 1.39480   3
  -9  -2  -1 -3.0260 2.70452   3
  -9  -2  -1 4.70616 4.75330   1
  -9  -2  -1 1.52892 2.16234   2
   9  -2   1 -0.0452 1.26655   2
  -9   2  -1 1.79464 3.70755   1
   9   2   1 4.09901 4.52660   1
  -9   2  -1 -0.8783 3.28431   1
  -9   2  -1 -0.8133 1.45018   2
   9   2   1 1.10901 2.64149   3
 -10  -2  -1 126.376 11.4132   1
 -10  -2  -1 109.832 6.22843   2
  10  -2   1 117.069 5.28107   3
  10  -2   1 113.177 5.09474   2
  10  -2   1 112.854 10.0557   1
 -10  -2  -1 126.662 8.64979   3
 -10   2  -1 98.5013 9.17091   1
 -10   2  -1 108.648 9.08202   1
  10   2   1 112.556 10.8251   1
 -10   2  -1 115.852 5.31081   2
 -11  -2  -1 66.3642 6.19817   3
  11  -2   1 72.5438 4.18313   3
  11  -2   1 62.3414 8.37403   1
  11  -2   1 69.0956 3.65398   2
 -11  -2  -1 69.6535 5.15332   2
 -11  -2  -1 101.306 11.8680   1
 -11   2  -1 62.8639 8.01128   1
  11   2   1 69.4045 9.37977   1
  11   2   1 73.7468 6.52001   3
 -11   2  -1 58.5521 8.01826   1
 -11   2  -1 67.0067 3.93638   2
  12  -2   1 18.0705 1.88554   2
 -12  -2  -1 9.99983 5.67480   3
 -12  -2  -1 23.4333 8.16984   1
  12  -2   1 20.3253 5.94236   1
 -12  -2  -1 19.2513 3.08321   2
  12  -2   1 20.4400 2.55576   3
 -12  -2  -1 19.1842 3.06709   2
 -12   2  -1 21.3290 3.93455   3
 -12   2  -1 7.98940 5.50831   1
 -12   2  -1 18.1025 2.11710   2
  12   2   1 17.6415 4.48348   3
  12   2   1 13.8219 6.45260   1
  13  -2   1 692.555 25.7074   2
  13  -2   1 716.759 26.3225   3
 -13  -2  -1 702.617 26.8339   2
  13  -2   1 701.806 32.5469   1
 -13  -2  -1 718.306 34.8408   1
 -13  -2  -1 725.963 26.6998   2
  13   2   1 722.287 27.9428   3
  13   2   1 695.444 33.8366   1
 -13   2  -1 686.004 26.2230   3
 -13   2  -1 690.540 25.8235   2
 -13   2  -1 722.273 32.4600   1
 -14  -2  -1 363.769 14.7359   2
  14  -2   1 354.595 13.1883   2
  14  -2   1 366.710 14.0726   3
  14  -2   1 330.671 20.0147   1
 -14  -2  -1 340.542 22.6349   1
 -14  -2  -1 361.968 14.4467   2
 -14   2  -1 320.268 20.1910   1
  14   2   1 343.381 21.3274   1
  14   2   1 376.365 15.9105   3
 -14   2  -1 339.561 13.3032   2
 -14   2  -1 358.510 13.9932   3
 -15  -2  -1 9.39733 2.92087   2
 -15  -2  -1 23.6146 3.61111   2
 -15  -2  -1 1.94887 7.04363   1
  15  -2   1 17.4788 6.22692   1
  15  -2   1 17.4167 2.89136   3
 -15   2  -1 12.4818 6.50233   1
 -15   2  -1 15.9657 1.77518   2
  15   2   1 17.4377 4.48714   3
  15   2   1 10.7790 6.64765   1
 -15   2  -1 16.8612 2.73653   3
  16  -2   1 62.9445 9.89564   1
 -16  -2  -1 56.6408 5.66235   2
  16  -2   1 55.2928 4.80878   3
 -16  -2  -1 60.8790 5.46722   2
 -16  -2  -1 67.2845 12.2536   1
 -16   2  -1 53.8062 9.17391   1
 -16   2  -1 53.2579 4.60456   3
  16   2   1 66.2480 7.73074   3
  16   2   1 59.7339 10.1793   1
 -16   2  -1 56.9982 2.99758   2
  17  -2   1 13.5269 6.40409   1
 -17  -2  -1 14.3786 3.20675   2
 -17  -2  -1 14.0819 10.9390   1
 -17  -2  -1 6.37742 3.17342   2
  17  -2   1 17.4959 3.15419   3
  17   2   1 7.20964 7.65763   1
  17   2   1 12.2011 4.65479   3
 -17   2  -1 14.0243 2.92376   3
 -17   2  -1 17.8351 7.22344   1
 -18  -2  -1 52.5764 5.78028   2
  18  -2   1 48.0550 5.42564   3
 -18  -2  -1 28.8782 11.1183   1
  18  -2   1 34.4014 8.68299   1
 -18  -2  -1 55.9890 5.39224   2
  18   2   1 74.3163 7.68825   3
 -18   2  -1 49.7112 9.68680   1
  18   2   1 39.4228 9.14995   1
 -18   2  -1 39.5257 4.68590   3
 -19  -2  -1 6.55865 8.63257   1
 -19  -2  -1 -2.2950 2.95009   2
  19  -2   1 -1.8914 2.61661   3
 -19  -2  -1 0.82259 2.81224   2
  19  -2   1 -1.6037 5.50028   1
  19   2   1 0.73688 4.32471   3
 -19   2  -1 -3.5677 2.23314   3
  19   2   1 4.58115 6.85733   1
 -19   2  -1 3.51317 6.82445   1
  20  -2   1 49.8792 5.39338   3
 -20  -2  -1 55.7835 8.44520   2
 -20  -2  -1 52.3783 5.68163   2
 -20  -2  -1 49.0757 12.8439   1
 -20   2  -1 37.8175 10.2178   1
  20   2   1 60.7610 11.8521   1
  20   2   1 59.5531 7.40101   3
 -21  -2  -1 198.984 9.75851   2
 -21  -2  -1 202.639 23.7927   1
 -21  -2  -1 221.960 10.3249   2
  21  -2   1 187.488 9.77340   3
  21   2   1 217.054 17.5305   3
 -21   2  -1 122.117 17.0465   1
 -22  -2  -1 -25.895 11.9656   1
  22  -2   1 0.11499 8.23057   1
 -22  -2  -1 4.50300 3.23878   2
  22  -2   1 3.35046 3.22932   3
  22   2   1 0.46885 8.38174   1
  22   2   1 4.74273 5.56710   3
 -22   2  -1 -10.235 10.8838   1
  23  -2   1 -4.9255 2.68043   3
 -23  -2  -1 -4.2847 2.69792   2
  23   2   1 1.88362 4.86768   3
  24  -2   1 -1.8612 2.78282   3
 -24  -2  -1 0.94364 2.86896   2
  24   2   1 -7.8956 4.52072   3
  23  -3  -1 6.38613 2.82896   3
 -23  -3   1 0.30462 3.32932   2
  23   3  -1 6.10367 6.15063   3
 -22  -3   1 9.99551 3.76021   2
  22  -3  -1 13.0538 3.24044   3
 -22  -3   1 20.6211 16.0453   1
  22   3  -1 11.3021 6.12102   3
  21  -3  -1 63.7496 11.3991   1
 -21  -3   1 64.3530 6.93217   2
  21  -3  -1 60.4712 5.61229   3
 -21  -3   1 24.3977 16.0848   1
 -21   3   1 48.1289 11.0508   1
  21   3  -1 60.6336 7.92997   3
  20  -3  -1 0.15314 2.77402   3
 -20  -3   1 -12.074 9.42039   1
  20  -3  -1 -6.8697 6.72049   1
 -20  -3   1 0.17176 3.46664   2
  20   3  -1 10.5602 7.50462   1
 -20   3   1 9.79684 7.53571   1
  20   3  -1 10.2949 6.33933   3
 -19  -3   1 54.3926 13.7144   1
  19  -3  -1 57.6408 6.80839   3
  19  -3  -1 43.6310 10.1815   1
 -19  -3   1 58.4712 6.56090   2
  19   3  -1 89.8625 11.1006   3
 -19   3   1 56.6620 9.87853   1
  19   3  -1 62.8290 13.8013   1
 -18  -3   1 106.207 7.38218   2
 -18  -3   1 69.7785 14.6694   1
  18  -3  -1 82.5369 11.6309   1
  18   3  -1 91.8700 13.6472   1
  18   3  -1 110.202 10.2302   3
 -18   3   1 110.072 12.4306   1
 -18   3   1 97.5036 10.9732   1
  17  -3  -1 6.87625 5.68774   1
 -17  -3   1 6.68933 8.93139   1
 -17  -3   1 0.14379 3.38959   2
  17  -3  -1 -0.7666 2.52150   3
  17   3  -1 -5.0051 5.76978   1
 -17   3   1 2.46449 5.44787   1
 -17   3   1 9.60827 6.67531   1
  17   3  -1 -0.5936 4.62781   3
  16  -3  -1 4.94205 5.39493   1
  16  -3  -1 -1.7519 2.42434   3
 -16  -3   1 1.70166 8.35456   1
 -16  -3   1 -2.7514 3.26331   2
  16   3  -1 -1.8638 6.45282   1
 -16   3   1 0.86821 4.86069   1
 -16   3   1 -3.3637 3.99268   1
  16   3  -1 5.79486 5.01593   3
 -15  -3   1 11.1707 8.48801   1
  15  -3  -1 12.2993 3.00656   3
  15  -3  -1 12.8478 6.40385   1
 -15  -3   1 13.7904 3.89697   2
 -15   3   1 10.4614 4.96022   1
  15   3  -1 13.2388 8.04264   1
  15   3  -1 14.7172 4.88133   3
 -15   3   1 16.8514 5.65591   1
  14  -3  -1 154.023 6.47792   2
  14  -3  -1 165.812 7.94164   3
 -14  -3   1 171.080 16.9685   1
 -14  -3   1 164.391 10.5671   2
  14  -3  -1 163.923 13.7932   1
 -14   3   1 167.945 11.5166   1
 -14   3   1 159.217 11.6530   1
  14   3  -1 146.422 14.3913   1
  14   3  -1 190.420 10.7352   3
 -13  -3   1 131.669 7.84345   2
  13  -3  -1 102.733 12.0991   1
  13  -3  -1 131.910 6.61398   3
 -13  -3   1 138.833 17.7598   1
  13  -3  -1 113.909 5.35958   2
  13   3  -1 141.794 9.25369   3
 -13   3   1 110.511 9.36033   1
  13   3  -1 123.037 13.4132   1
 -13   3   1 126.550 9.87690   1
  12  -3  -1 0.03354 1.43018   2
 -12  -3   1 0.43250 2.80717   2
 -12  -3   1 10.3146 7.41719   1
  12  -3  -1 -0.4737 2.32838   3
  12   3  -1 6.85064 4.22959   3
 -12   3   1 -1.8739 3.50618   1
  12   3  -1 4.15101 6.08432   1
 -12   3   1 -2.8224 3.64772   1
  11  -3  -1 43.5454 3.33181   2
 -11  -3   1 50.5688 10.0160   1
 -11  -3   1 52.3306 5.68420   2
  11  -3  -1 50.4010 7.32107   1
  11  -3  -1 41.9143 4.10720   3
  11   3  -1 46.3534 8.24174   1
 -11   3   1 34.5927 7.62481   1
 -11   3   1 46.3421 6.27725   1
  11   3  -1 52.8879 5.75742   3
 -10  -3   1 35.7941 8.21064   1
  10  -3  -1 30.5313 3.23818   2
 -10  -3   1 34.2860 4.11332   2
  10  -3  -1 32.0669 6.07029   1
  10  -3  -1 38.2489 3.79437   3
  10   3  -1 33.8847 7.53025   1
 -10   3   1 31.5578 4.29710   1
 -10   3   1 37.5603 4.72123   1
  10   3  -1 23.6808 4.93810   3
   9  -3  -1 767.729 28.8925   3
  -9  -3   1 825.412 36.2278   1
   9  -3  -1 748.130 32.2722   1
  -9  -3   1 767.394 30.1644   3
  -9  -3   1 815.041 29.8041   2
   9  -3  -1 755.377 28.7546   2
   9   3  -1 785.837 34.9854   1
  -9   3   1 780.092 29.9049   1
  -9   3   1 813.385 30.0509   1
  -8  -3   1 296.082 12.7600   3
  -8  -3   1 284.910 17.7965   1
   8  -3  -1 275.383 10.9477   3
   8  -3  -1 257.644 10.8543   2
   8  -3  -1 270.056 13.9758   1
  -8  -3   1 257.592 11.9187   2
   8   3  -1 267.410 13.0226   3
   8   3  -1 265.936 16.3901   1
  -8   3   1 282.285 10.7906   1
   7  -3  -1 10.6560 2.06820   2
   7  -3  -1 19.9108 2.42436   3
  -7  -3   1 13.9484 5.73350   1
  -7  -3   1 21.1910 3.46236   2
  -7  -3   1 13.7945 3.39257   3
   7   3  -1 18.3138 3.97119   3
  -7   3   1 13.6637 2.30211   2
   7   3  -1 19.0158 5.45604   1
  -6  -3   1 184.931 9.23230   2
   6  -3  -1 195.244 8.43753   3
  -6  -3   1 206.777 9.53080   3
   6  -3  -1 206.126 8.58790   2
  -6  -3   1 209.712 13.7795   1
  -6   3   1 203.178 8.73539   2
   6   3  -1 210.120 9.65429   3
   6   3  -1 203.809 12.6876   1
  -5  -3   1 219.887 13.6473   1
  -5  -3   1 208.519 9.63982   3
  -5  -3   1 217.980 9.70406   2
   5  -3  -1 210.903 9.02313   2
   5   3  -1 214.908 12.4824   1
  -5   3   1 215.115 9.20031   2
   5   3  -1 212.753 9.76867   3
   5   3  -1 221.707 9.75831   2
  -4  -3   1 91.1385 8.59282   1
   4  -3  -1 67.2258 6.75386   2
  -4  -3   1 85.9891 5.42068   3
  -4  -3   1 94.6968 5.57172   2
   4   3  -1 94.4097 5.65208   3
  -4   3   1 76.8864 5.09345   2
   4   3  -1 89.7416 5.53503   2
   4   3  -1 81.1903 7.36220   1
   3  -3  -1 387.836 16.2234   1
   3  -3  -1 377.602 15.1518   3
  -3  -3   1 402.482 15.7208   2
  -3  -3   1 387.962 15.5569   3
  -3  -3   1 410.233 19.1775   1
   3  -3  -1 401.837 16.1636   2
  -3   3   1 404.112 15.5705   2
   3   3  -1 404.703 17.7986   2
   3   3  -1 393.642 18.0793   1
   3   3  -1 395.705 15.6490   3
   2  -3  -1 112.724 6.72151   1
   2  -3  -1 119.154 5.99278   2
  -2  -3   1 129.926 9.26405   1
  -2  -3   1 125.188 6.28490   2
   2  -3  -1 100.130 5.57028   3
  -2  -3   1 116.981 5.91953   3
   2   3  -1 112.582 5.98785   3
   2   3  -1 121.226 8.04249   1
   2   3  -1 111.344 7.61198   2
  -1  -3   1 875.004 32.8290   2
   1  -3  -1 885.397 32.7326   2
  -1  -3   1 905.614 35.7427   1
   1  -3  -1 822.317 32.5086   3
  -1  -3   1 882.852 32.5401   3
   1  -3  -1 912.702 33.9400   1
   1   3  -1 899.796 32.9485   2
   1   3  -1 904.072 34.6138   1
   1   3  -1 876.801 32.6047   3
   0  -3   1 8.59252 2.37274   3
   0  -3   1 4.01216 3.57837   1
   0  -3  -1 12.8916 3.26078   1
   0  -3  -1 12.1907 2.31589   2
   0  -3  -1 12.3764 2.31472   3
   0  -3   1 12.1437 2.33921   2
   0   3  -1 17.9964 2.90854   2
   0   3  -1 14.3750 3.19968   1
   0   3  -1 11.7604 2.19712   3
  -1  -3  -1 53.2425 4.13479   3
  -1  -3  -1 55.7028 4.42185   2
   1  -3   1 52.6294 3.47064   3
   1  -3   1 50.7631 4.24398   2
  -1  -3  -1 55.6246 5.66734   1
   1  -3   1 56.3817 6.46293   1
   1   3   1 58.9037 3.66409   1
  -1   3  -1 62.1084 4.76052   2
  -1   3  -1 62.2956 5.18423   1
   2  -3   1 68.7757 3.93806   3
  -2  -3  -1 80.3335 5.17698   2
  -2  -3  -1 77.8411 6.76107   1
   2  -3   1 80.6604 4.88171   2
   2  -3   1 71.3850 6.75725   1
  -2  -3  -1 73.1119 4.89165   3
   2   3   1 80.0789 5.22399   3
  -2   3  -1 81.3448 5.54058   1
  -2   3  -1 72.3464 5.49674   1
   2   3   1 70.3073 5.19550   1
  -3  -3  -1 341.920 14.0724   2
   3  -3   1 352.824 16.1672   1
  -3  -3  -1 335.691 14.0499   3
   3  -3   1 360.018 13.8354   2
  -3  -3  -1 350.682 16.6964   1
   3  -3   1 339.519 13.1322   3
   3   3   1 363.252 14.2802   3
   3   3   1 335.694 15.1979   1
  -3   3  -1 343.055 14.7650   1
  -3   3  -1 354.872 14.6886   1
  -4  -3  -1 157.711 7.76136   3
   4  -3   1 163.373 7.25813   2
   4  -3   1 150.521 9.37781   1
   4  -3   1 149.702 6.30562   3
  -4  -3  -1 163.509 10.7327   1
  -4  -3  -1 160.417 7.70557   2
  -4   3  -1 124.100 8.25411   2
  -4   3  -1 161.010 8.23913   1
  -4   3  -1 156.147 8.25962   1
   4   3   1 152.897 9.10641   1
   4   3   1 162.427 7.89702   3
  -5  -3  -1 43.1688 6.53700   1
   5  -3   1 42.3098 2.59807   3
  -5  -3  -1 42.3701 4.63451   2
   5  -3   1 47.5256 3.90989   2
  -5  -3  -1 45.1170 4.65551   3
  -5   3  -1 45.0473 4.83630   1
  -5   3  -1 34.9207 4.18623   2
   5   3   1 36.8266 5.31112   1
  -5   3  -1 36.9927 4.62138   1
   5   3   1 41.0748 4.75939   3
  -6  -3  -1 346.779 14.3849   3
  -6  -3  -1 342.743 14.1351   2
   6  -3   1 324.231 12.6951   3
   6  -3   1 336.568 12.7311   3
   6  -3   1 342.810 14.1166   2
  -6  -3  -1 351.962 18.1504   1
   6   3   1 356.808 17.0321   1
   6   3   1 347.194 14.4427   3
  -6   3  -1 338.886 15.2764   1
  -6   3  -1 340.572 13.6534   2
  -6   3  -1 342.157 15.1796   1
   7  -3   1 169.351 6.83703   3
  -7  -3  -1 176.844 12.9109   1
   7  -3   1 179.142 6.90255   3
  -7  -3  -1 176.679 8.67847   2
   7   3   1 185.592 11.7963   1
  -7   3  -1 165.507 7.92006   2
  -7   3  -1 166.171 9.72396   1
  -7   3  -1 188.535 10.1533   1
   8  -3   1 179.739 6.95631   3
   8  -3   1 170.314 6.87839   3
  -8  -3  -1 181.369 9.20087   3
  -8  -3  -1 169.396 8.77623   2
  -8  -3  -1 188.872 13.2361   1
  -8   3  -1 168.135 10.2756   1
   8   3   1 171.040 9.94147   3
  -8   3  -1 183.066 10.4037   1
   8   3   1 175.336 12.4303   1
  -8   3  -1 178.314 7.99769   2
  -9  -3  -1 28.5262 7.61095   1
   9  -3   1 20.3726 2.75513   2
  -9  -3  -1 27.0979 3.68972   2
  -9  -3  -1 11.4453 5.68821   3
   9  -3   1 18.5324 2.35161   3
  -9   3  -1 23.4400 2.88400   2
  -9   3  -1 22.9030 4.74290   1
   9   3   1 22.1807 5.98358   1
   9   3   1 12.2615 4.34344   3
  -9   3  -1 19.9123 4.70419   1
  10  -3   1 547.519 20.1632   3
  10  -3   1 551.326 20.7342   2
 -10  -3  -1 540.464 21.8059   2
 -10  -3  -1 576.364 28.8267   1
 -10   3  -1 539.869 24.4372   1
  10   3   1 557.530 27.4775   1
 -10   3  -1 530.993 20.8240   2
  10   3   1 569.848 22.4038   3
 -11  -3  -1 391.194 27.5020   1
  11  -3   1 376.093 14.8696   2
  11  -3   1 387.405 14.4454   3
 -11  -3  -1 395.062 16.3186   2
  11   3   1 391.870 17.0027   3
 -11   3  -1 388.005 19.0963   1
 -11   3  -1 393.889 19.4389   1
 -11   3  -1 367.661 15.0663   2
  11   3   1 399.921 22.6616   1
  12  -3   1 64.2867 3.68093   3
 -12  -3  -1 62.9220 6.27458   2
  12  -3   1 65.0973 4.20662   2
 -12  -3  -1 62.9518 10.5668   1
  12  -3   1 70.3708 9.36615   1
 -12   3  -1 69.3461 4.54894   2
 -12   3  -1 63.0724 8.39233   1
  12   3   1 90.0749 11.1279   1
 -12   3  -1 55.5951 7.64509   1
  12   3   1 62.9837 7.36999   3
  13  -3   1 119.090 5.45420   3
 -13  -3  -1 118.331 13.0190   2
  13  -3   1 122.764 11.9015   1
  13  -3   1 115.964 5.65383   2
 -13  -3  -1 123.723 15.1044   1
  13   3   1 131.923 9.05604   3
 -13   3  -1 124.981 10.6985   1
 -13   3  -1 111.570 10.2980   1
  13   3   1 118.097 12.0834   1
 -13   3  -1 114.287 5.96126   2
 -14  -3  -1 137.335 15.3313   1
  14  -3   1 140.356 6.28390   3
  14  -3   1 126.907 6.22708   2
 -14  -3  -1 147.563 8.70727   2
  14  -3   1 149.468 13.4300   1
 -14   3  -1 139.172 11.7932   1
 -14   3  -1 136.410 12.0328   1
  14   3   1 164.510 10.0414   3
 -14   3  -1 138.099 6.58315   2
  14   3   1 156.367 14.4864   1
  15  -3   1 17.6167 2.02847   2
 -15  -3  -1 16.7494 3.94135   2
 -15  -3  -1 11.2673 9.01282   1
  15  -3   1 24.5520 2.50700   3
  15  -3   1 26.4746 7.18352   1
 -15  -3  -1 13.6253 3.50914   2
  15   3   1 24.7011 8.03241   1
 -15   3  -1 13.2645 5.56996   1
 -15   3  -1 17.7578 6.50616   1
 -15   3  -1 17.1689 2.31642   2
  15   3   1 23.2637 5.57906   3
 -16  -3  -1 21.0563 3.74025   2
  16  -3   1 28.9885 2.74541   3
  16  -3   1 19.9252 6.98616   1
  16  -3   1 22.9578 2.39606   2
 -16  -3  -1 24.0185 9.32318   1
 -16   3  -1 21.9754 6.36376   1
 -16   3  -1 16.8619 6.75577   1
  16   3   1 30.8144 5.93212   3
  16   3   1 20.4752 8.10165   1
 -17  -3  -1 -7.1925 7.29874   1
  17  -3   1 1.41566 5.76172   1
  17  -3   1 0.10464 1.85529   3
 -17  -3  -1 -4.5238 3.04295   2
  17   3   1 -2.3456 6.17000   1
 -17   3  -1 -0.0678 5.83111   1
  17   3   1 -0.1130 4.46310   3
 -17   3  -1 -9.9077 5.06794   1
  18  -3   1 22.2018 2.60725   3
 -18  -3  -1 13.7347 9.48358   1
 -18  -3  -1 19.2437 3.96564   2
  18  -3   1 10.2106 6.88489   1
 -18   3  -1 12.7854 7.33235   1
  18   3   1 14.2502 5.33513   3
 -18   3  -1 19.3733 6.70307   1
  18   3   1 7.97171 7.60088   1
  19  -3   1 61.3715 10.7691   1
  19  -3   1 58.1950 4.32070   3
 -19  -3  -1 62.5020 5.78651   2
 -19  -3  -1 44.3498 13.0525   1
 -19   3  -1 68.4100 11.5015   1
  19   3   1 47.4530 10.9450   1
  20  -3   1 28.7977 3.71027   3
 -20  -3  -1 28.2568 4.59501   2
  20  -3   1 34.7948 9.48173   1
 -20  -3  -1 32.0424 14.9748   1
 -20   3  -1 19.5128 9.54383   1
  20   3   1 42.0256 6.68308   3
  20   3   1 33.3072 11.9699   1
 -21  -3  -1 13.4731 12.8978   1
  21  -3   1 7.82919 2.37234   3
 -21  -3  -1 11.3778 4.37182   2
  21  -3   1 20.8923 8.96796   1
 -21   3  -1 20.8238 11.7171   1
  21   3   1 11.3205 5.93001   3
 -22  -3  -1 5.79138 4.29304   2
  22  -3   1 6.13573 2.66326   3
  22   3   1 3.97090 5.66332   3
 -21  -4   1 9.33074 4.34545   2
  21   4  -1 7.22361 6.58359   3
  20  -4  -1 10.1757 2.33448   3
 -20  -4   1 6.30532 4.14498   2
  20   4  -1 4.00452 5.63927   3
  19  -4  -1 0.01584 1.98955   3
 -19  -4   1 3.50261 4.26706   2
  19   4  -1 -1.2447 5.74931   3
  18  -4  -1 -0.6093 1.94858   3
 -18  -4   1 -6.7478 11.4227   1
  18   4  -1 3.12631 5.20968   3
 -18   4   1 -3.9690 5.15266   1
 -17  -4   1 8.01809 10.1342   1
  17  -4  -1 4.61311 2.29221   3
 -17   4   1 -1.7336 3.07522   1
 -17   4   1 2.97922 3.32555   1
  17   4  -1 8.02261 7.84854   1
  17   4  -1 5.45453 7.39945   3
  16  -4  -1 51.2184 2.92644   2
 -16  -4   1 57.0745 13.2386   1
  16  -4  -1 52.5128 4.27264   3
  16   4  -1 82.1520 8.75536   3
  16   4  -1 49.9896 10.5053   1
  15  -4  -1 80.3337 4.38682   2
 -15  -4   1 67.2964 13.7211   1
  15  -4  -1 82.4415 5.07421   3
  15   4  -1 105.853 9.68688   3
  14  -4  -1 -0.6541 2.22068   3
 -14  -4   1 -2.6031 7.65694   1
  14   4  -1 0.34929 4.83561   3
  14   4  -1 -0.2361 5.78850   1
  13  -4  -1 54.0201 4.35691   3
  13  -4  -1 47.7797 3.97306   2
 -13  -4   1 55.6908 11.0105   1
  13   4  -1 66.6595 7.10523   3
  13   4  -1 51.4638 9.44157   1
  12  -4  -1 72.0403 4.75768   2
  12  -4  -1 71.9867 4.55964   3
 -12  -4   1 63.9573 12.0033   1
  12  -4  -1 72.7879 4.78205   3
  12   4  -1 84.7660 8.41993   3
  12   4  -1 62.2564 9.51204   1
 -11  -4   1 5.99295 7.79932   1
  11  -4  -1 -0.2436 2.19715   3
  11  -4  -1 -0.5190 2.05418   2
  11  -4  -1 0.53054 2.00353   3
  11   4  -1 5.44223 5.73984   1
  11   4  -1 -1.6313 4.23225   3
  10  -4  -1 119.099 6.02403   3
 -10  -4   1 123.795 14.9569   1
  10  -4  -1 116.339 6.31013   2
  10  -4  -1 115.465 6.08674   3
  10   4  -1 111.093 11.9244   1
  10   4  -1 138.269 9.08629   3
  -9  -4   1 77.5238 11.3653   1
   9  -4  -1 71.7194 4.60868   3
  -9  -4   1 75.4341 7.00199   2
   9  -4  -1 70.6023 4.99939   2
   9  -4  -1 72.4430 4.68968   3
   9   4  -1 75.1999 10.3430   1
   9   4  -1 59.2518 7.28543   3
  -8  -4   1 459.487 25.4177   1
  -8  -4   1 457.062 18.9332   2
   8  -4  -1 459.875 17.8684   2
   8  -4  -1 436.824 17.4914   3
   8  -4  -1 450.151 17.4878   3
   8   4  -1 488.978 19.4272   3
   8   4  -1 435.830 22.8186   1
  -7  -4   1 149.043 13.2824   1
   7  -4  -1 129.888 6.55562   3
   7  -4  -1 117.017 6.34535   3
   7  -4  -1 129.931 6.89440   2
  -7  -4   1 133.064 8.09625   2
   7   4  -1 134.947 8.49851   3
   7   4  -1 133.598 11.0460   1
  -6  -4   1 93.7968 7.13319   2
   6  -4  -1 93.0528 5.17642   3
  -6  -4   1 101.462 10.9804   1
   6  -4  -1 87.1673 5.66152   2
  -6  -4   1 69.6078 6.45256   3
   6   4  -1 82.1865 8.79666   1
   6   4  -1 111.295 7.79740   3
  -5  -4   1 0.74123 5.14788   1
   5  -4  -1 -1.1366 2.03976   3
   5  -4  -1 -0.2298 2.36372   2
  -5  -4   1 0.43795 2.93260   3
   5   4  -1 -4.0955 3.46859   1
   5   4  -1 -1.1697 3.06492   3
   4  -4  -1 45.5236 4.76547   2
   4  -4  -1 52.9369 4.22708   3
  -4  -4   1 54.1907 5.62945   2
  -4  -4   1 51.0034 8.36830   1
  -4  -4   1 51.3101 5.86820   3
   4   4  -1 54.5645 9.42934   1
   4   4  -1 58.1501 7.21510   3
  -3  -4   1 8.60014 9.47680   1
   3  -4  -1 11.4572 2.83914   2
  -3  -4   1 12.6085 3.10788   3
   3  -4  -1 10.3872 2.50856   3
  -3  -4   1 6.40941 2.82407   2
   3  -4  -1 7.30088 3.22141   1
   3   4  -1 11.6999 3.95782   1
   3   4  -1 7.77740 3.06364   3
   3   4  -1 6.20094 2.99491   2
  -2  -4   1 0.49571 2.50754   2
  -2  -4   1 2.58796 2.65457   3
   2  -4  -1 -4.4988 2.39066   2
   2  -4  -1 0.62805 3.11550   1
   2  -4  -1 1.58565 2.23114   3
  -2  -4   1 -2.0994 6.77147   1
   2   4  -1 -0.6351 2.73980   3
   2   4  -1 0.75901 2.73947   2
   2   4  -1 0.70817 3.07857   1
  -1  -4   1 34.5951 4.16240   3
   1  -4  -1 46.3266 6.10772   1
  -1  -4   1 33.8246 7.60727   1
   1  -4  -1 43.7115 4.22164   3
   1  -4  -1 34.5233 3.55443   2
  -1  -4   1 29.0054 3.54490   2
   1   4  -1 39.3486 5.23665   1
   1   4  -1 23.6640 3.53076   2
   0  -4  -1 -2.8639 3.42089   1
   0  -4   1 1.49530 2.41101   3
   0  -4   1 2.22732 2.71603   2
   0  -4  -1 -2.5451 2.70575   3
   0  -4   1 5.58233 5.16936   1
   0  -4  -1 1.85784 2.45276   2
   0   4  -1 -0.8246 2.46713   1
   0   4  -1 0.40278 2.67308   2
  -1  -4  -1 8.27837 4.46587   1
  -1  -4  -1 7.25891 3.18430   3
   1  -4   1 10.0151 2.89637   2
  -1  -4  -1 9.06526 3.06591   2
   1  -4   1 7.06301 2.44644   3
   1  -4   1 10.1688 5.49353   1
  -1   4  -1 6.90103 2.37735   1
  -1   4  -1 11.1314 2.59750   1
  -1   4  -1 9.34106 3.20064   2
   2  -4   1 203.553 17.8429   1
  -2  -4  -1 176.039 17.8477   1
   2  -4   1 205.023 9.08694   3
   2  -4   1 218.720 10.0333   2
  -2  -4  -1 220.499 10.3563   2
  -2  -4  -1 215.932 10.1798   3
  -2   4  -1 233.880 10.4093   2
  -3  -4  -1 90.8798 11.3900   1
   3  -4   1 84.5601 5.97674   2
   3  -4   1 74.8684 4.81984   3
   3  -4   1 82.6521 13.1147   1
  -3  -4  -1 92.4960 6.52177   2
   3   4   1 95.8566 6.14432   1
   3   4   1 102.250 10.8343   3
  -3   4  -1 89.7818 6.45143   2
   4  -4   1 258.037 14.0859   1
   4  -4   1 243.834 11.1306   2
  -4  -4  -1 259.115 15.2669   1
  -4  -4  -1 250.023 11.5671   3
  -4  -4  -1 241.976 11.9952   2
   4   4   1 242.084 12.1714   3
  -4   4  -1 269.612 11.5059   2
   4   4   1 248.603 12.4006   1
   5  -4   1 0.33860 2.44323   2
  -5  -4  -1 1.21751 3.10930   3
  -5  -4  -1 3.28752 5.19198   1
  -5  -4  -1 0.31080 5.02632   2
   5  -4   1 6.06849 1.87799   3
   5   4   1 1.45264 3.71144   1
  -5   4  -1 5.84135 3.14082   2
   5   4   1 0.98846 3.67873   3
  -6  -4  -1 57.5117 6.01785   2
   6  -4   1 50.6386 4.84307   2
   6  -4   1 42.4830 3.31309   3
   6  -4   1 52.8925 3.43458   3
  -6  -4  -1 58.4426 8.53371   1
  -6   4  -1 59.7496 5.46161   2
   6   4   1 60.9926 6.50775   3
   6   4   1 53.6925 6.59892   1
   7  -4   1 20.3136 2.45227   3
  -7  -4  -1 19.5917 3.82341   2
  -7  -4  -1 26.4450 7.26335   1
   7  -4   1 20.5767 2.49542   3
   7  -4   1 21.5296 2.94302   2
   7   4   1 23.3837 5.37150   1
  -7   4  -1 21.4816 3.31718   2
   7   4   1 23.8278 4.55791   3
   8  -4   1 275.634 11.7280   2
   8  -4   1 271.319 10.3444   3
   8  -4   1 265.726 10.3163   3
  -8  -4  -1 236.894 12.6455   2
  -8  -4  -1 286.201 18.3335   1
   8   4   1 301.377 13.4957   3
   8   4   1 261.208 15.7109   1
  -8   4  -1 276.809 11.9847   2
  -8   4  -1 282.369 11.2782   1
  -9  -4  -1 25.5607 7.69775   1
   9  -4   1 24.6021 2.00979   3
   9  -4   1 24.7887 3.13034   2
  -9   4  -1 25.4902 3.37598   1
  -9   4  -1 25.6405 3.46132   1
   9   4   1 13.5122 5.79877   1
  -9   4  -1 29.0290 3.54537   2
   9   4   1 21.6102 4.65377   3
  10  -4   1 47.3404 4.67650   2
 -10  -4  -1 50.2327 9.90901   1
  10   4   1 65.0244 7.44660   3
  10   4   1 43.6033 7.89128   1
 -10   4  -1 52.2649 5.23434   2
 -10   4  -1 49.4984 5.32913   1
 -10   4  -1 44.3303 5.16185   1
  11  -4   1 56.9805 4.60264   2
 -11  -4  -1 55.1753 10.6808   1
  11   4   1 52.6344 8.61041   1
 -11   4  -1 49.8342 5.90131   1
 -11   4  -1 36.1469 3.87819   2
  11   4   1 47.0171 5.99505   3
 -11   4  -1 50.8297 6.00762   1
  12  -4   1 -2.2140 2.14677   2
 -12  -4  -1 -4.7186 7.47599   1
 -12   4  -1 2.39510 3.65903   1
 -12   4  -1 -0.9832 2.47802   2
  12   4   1 2.39534 5.13208   1
  12   4   1 6.04818 4.64594   3
 -12   4  -1 -6.1928 3.20220   1
 -13  -4  -1 4.04887 8.34646   1
  13  -4   1 6.71226 2.29294   2
 -13   4  -1 5.13604 4.44192   1
  13   4   1 7.00882 5.97321   1
 -13   4  -1 5.70041 2.57632   2
  13   4   1 9.80698 4.58934   3
 -13   4  -1 -1.2493 3.58383   1
 -14  -4  -1 8.72023 8.96776   1
  14  -4   1 3.14463 2.06848   2
  14   4   1 -5.0372 5.18827   1
 -14   4  -1 5.17487 7.50098   1
 -14   4  -1 0.19676 3.91534   1
  14   4   1 4.23642 4.48778   3
  15  -4   1 1.11386 1.80826   2
 -15  -4  -1 9.91905 9.58158   1
 -15   4  -1 -1.8892 4.01358   1
  15   4   1 -6.0453 5.98238   1
  15   4   1 -4.6609 4.08982   3
 -16  -4  -1 1.48059 10.8252   1
 -16  -4  -1 13.5389 6.07738   2
 -16   4  -1 14.1135 5.16264   1
  16   4   1 11.8814 7.51472   1
 -16   4  -1 8.56716 7.10205   1
  16   4   1 8.64243 4.96686   3
  17  -4   1 40.0370 2.99447   2
 -17  -4  -1 50.2723 5.84520   2
 -17  -4  -1 30.8523 12.9100   1
 -17   4  -1 37.8775 7.53915   1
  17   4   1 40.8912 6.45971   3
 -18  -4  -1 88.2869 8.17724   2
 -18   4  -1 71.4207 9.71218   1
  18   4   1 94.7340 10.1890   3
 -19  -4  -1 -4.2643 3.93197   2
 -19   4  -1 -9.7460 7.22803   1
  19   4   1 -2.0004 5.85386   3
 -20  -4  -1 43.1928 5.52675   2
  20   4   1 26.6516 6.22357   3
 -20   4  -1 22.7446 9.47866   1
  18   5  -1 3.92275 5.30128   3
  17   5  -1 0.16035 5.17596   3
  16   5  -1 2.38006 5.41180   3
  15   5  -1 10.1991 5.48692   3
  14  -5  -1 -0.8102 1.28238   3
  14  -5  -1 1.74972 1.96122   2
  14  -5  -1 1.54757 1.67148   3
  14   5  -1 4.70831 5.27657   3
  13  -5  -1 39.3347 3.24328   3
  13  -5  -1 40.8578 4.22228   2
  13   5  -1 31.5732 6.12825   3
 -12  -5   1 5.56023 9.14849   1
  12  -5  -1 4.39703 2.60975   2
  12  -5  -1 6.34775 2.04201   3
  12   5  -1 8.83559 6.37169   1
  12   5  -1 9.25436 5.48167   3
  11  -5  -1 17.5467 2.59912   3
 -11  -5   1 20.0610 9.27754   1
  11  -5  -1 19.6293 2.45548   3
  11   5  -1 20.5518 6.42876   1
  11   5  -1 17.9490 5.17494   3
  10  -5  -1 -1.1345 1.90773   3
  10  -5  -1 1.03950 2.28253   2
 -10  -5   1 9.94625 12.0247   1
  10  -5  -1 -0.7702 2.07707   3
  10   5  -1 -1.3210 5.57381   1
  10   5  -1 3.06382 4.86300   3
   9  -5  -1 0.58809 2.24175   3
  -9  -5   1 2.56383 7.20417   1
   9  -5  -1 4.81157 2.16097   3
   9  -5  -1 0.28469 2.40483   2
   9   5  -1 3.22482 5.35190   1
   9   5  -1 0.49188 4.14243   3
   8  -5  -1 4.46793 2.22838   3
   8  -5  -1 6.54662 2.58682   3
   8  -5  -1 1.63599 2.53518   2
  -8  -5   1 -2.2599 6.72413   1
   8   5  -1 -2.5245 3.86638   3
   8   5  -1 -1.0301 4.55730   1
  -7  -5   1 5.23236 7.17495   1
   7  -5  -1 20.4464 3.41486   2
   7  -5  -1 19.7783 3.02576   3
   7  -5  -1 25.3081 3.27214   3
   7   5  -1 13.9202 5.15357   1
   7   5  -1 16.0025 4.44209   3
  -6  -5   1 62.9383 10.1834   1
   6  -5  -1 54.6328 5.54507   2
   6  -5  -1 51.9268 4.72280   3
   6   5  -1 49.0601 6.74558   1
   6   5  -1 67.6067 7.30601   3
   5  -5  -1 3.88285 2.62732   3
  -5  -5   1 3.60233 6.38798   1
   5  -5  -1 2.08408 2.68234   2
   5   5  -1 3.21445 3.73927   3
   5   5  -1 -0.7313 3.53996   1
  -4  -5   1 6.90497 5.71149   1
   4  -5  -1 1.25738 2.58739   3
   4  -5  -1 1.33690 3.86201   2
   4   5  -1 0.19972 3.16865   1
   4   5  -1 0.15756 3.66391   3
   3  -5  -1 13.8393 3.08275   3
  -3  -5   1 19.6398 6.52023   1
   3  -5  -1 20.7819 4.20057   1
   3   5  -1 13.5881 3.51612   1
  -2  -5   1 17.2543 6.17988   1
   2  -5  -1 13.6864 4.20986   1
   2  -5  -1 13.0122 3.60658   3
  -2  -5   1 14.4749 3.43173   3
   2   5  -1 11.3465 2.42256   1
   1  -5  -1 41.6619 5.01953   3
  -1  -5   1 43.4105 4.96839   3
   1  -5  -1 51.5086 7.13461   1
  -1  -5   1 39.4831 7.50732   1
   0  -5   1 3.58487 5.06345   1
   0  -5  -1 8.33261 3.09263   3
   0  -5  -1 1.54227 4.04623   1
   0  -5   1 5.94946 2.86750   3
  -1  -5  -1 19.9487 5.54903   1
   1  -5   1 19.6510 3.23003   3
   1  -5   1 22.5218 5.73842   1
  -1   5  -1 16.9389 4.01069   2
   2  -5   1 32.1647 6.41043   1
   2  -5   1 39.7003 3.85541   3
  -2  -5  -1 38.2593 6.95488   1
  -2   5  -1 38.2640 4.91462   2
   3  -5   1 270.569 15.3503   1
  -3  -5  -1 267.264 16.6043   1
   3  -5   1 265.668 11.1737   3
  -3   5  -1 249.406 12.6324   2
   4  -5   1 33.1513 6.20550   1
  -4  -5  -1 24.2269 6.79597   1
   4  -5   1 29.6160 3.28615   3
  -4   5  -1 28.1442 4.44655   2
  -5  -5  -1 35.8799 7.96018   1
   5  -5   1 34.1287 3.66613   3
   5   5   1 40.0146 4.71785   1
  -5   5  -1 33.8726 4.84748   2
  -6  -5  -1 9.23843 6.47689   1
   6  -5   1 2.45957 2.04692   3
   6   5   1 0.78738 3.37645   1
  -6   5  -1 6.12064 3.76772   2
   6   5   1 0.79619 4.55422   3
   7  -5   1 66.4099 3.77850   3
   7  -5   1 67.7549 3.75218   3
  -7  -5  -1 61.9354 10.2280   1
   7   5   1 67.1494 8.14637   3
   7   5   1 67.1732 7.56875   1
  -7   5  -1 62.8496 6.66905   2
   8  -5   1 14.8120 3.56591   2
  -8  -5  -1 19.5704 7.51738   1
   8   5   1 17.9132 5.00469   1
  -8   5  -1 8.44418 3.36779   2
   8   5   1 12.2555 4.72804   3
   9  -5   1 47.1785 4.72100   2
   9   5   1 68.3491 8.23563   3
   9   5   1 46.7186 8.17165   1
  -9   5  -1 60.3542 6.36792   2
 -10  -5  -1 22.5567 9.27191   1
  10  -5   1 9.52170 2.95678   2
  10   5   1 18.3241 5.96039   3
  10   5   1 7.42135 5.56900   1
  11  -5   1 98.2067 6.59192   2
 -11  -5  -1 103.205 14.8431   1
  11   5   1 110.128 9.75313   3
  11   5   1 97.4069 10.9883   1
  12  -5   1 9.22495 2.80003   2
 -12  -5  -1 5.91438 15.0052   1
  12   5   1 -10.667 8.25492   1
  12   5   1 15.8992 5.93481   3
  13  -5   1 5.88102 2.40095   2
  13   5   1 -0.2069 9.05015   3
  14  -5   1 2.72994 2.64974   2
  14   5   1 6.04334 5.69390   3
  15   5   1 8.08971 6.35928   3
 -16  -5  -1 -3.0462 4.16729   2
  16   5   1 -2.5442 6.06345   3
 -17  -5  -1 -1.6972 4.80654   2
  17   5   1 5.44845 6.51741   3
  13   6  -1 21.6777 6.19482   3
  12   6  -1 2.10550 5.35051   3
  11   6  -1 2.17740 5.02894   3
  10  -6  -1 23.3207 2.88988   3
  10   6  -1 28.5696 7.90322   3
   9  -6  -1 2.58739 2.13974   3
   9   6  -1 -1.3904 5.08332   3
   8  -6  -1 19.8946 2.99887   3
   8   6  -1 26.6615 5.95119   3
   7  -6  -1 7.03723 3.16904   3
   7   6  -1 2.32156 5.80938   1
   6  -6  -1 6.62111 3.46697   3
   6   6  -1 4.51688 2.70036   1
   5  -6  -1 12.1756 3.19007   3
   1  -6  -1 11.2382 4.07567   1
   0  -6  -1 8.69729 4.55635   1
   0  -6   1 0.25967 6.77766   1
   1  -6   1 -4.9517 4.75585   1
  -1  -6  -1 -4.7463 4.20541   1
  -2  -6  -1 30.5040 9.17542   1
   2  -6   1 18.6594 3.35679   3
   2  -6   1 18.4868 8.21451   1
   3  -6   1 -2.3375 3.01709   3
   4  -6   1 16.0059 2.86292   3
   5  -6   1 0.85657 2.06631   3
   5  -6   1 0.13434 2.30019   3
   6  -6   1 35.4329 3.32152   3
  12   6   1 -4.9479 5.31698   3
  13   6   1 1.73545 5.27152   3
   5  -7  -1 -1.0615 2.72276   3
  25   0  -2 14.0690 5.13245   3
  24   0  -2 15.3558 6.81374   3
 -24   0   2 4.23485 14.6479   1
  23   0  -2 152.351 11.4471   3
 -23   0   2 198.632 22.6799   1
  23   0  -2 131.829 17.2461   1
  22   0  -2 0.20142 8.04153   1
  22   0  -2 0.62473 4.46924   3
 -22   0   2 10.6524 10.0663   1
  21   0  -2 1.32839 4.44480   3
 -21   0   2 -6.9680 7.93885   1
  21   0  -2 -3.3491 7.03237   1
 -20   0   2 40.5064 10.7837   1
  20   0  -2 63.4594 7.67640   3
  20   0  -2 48.4655 9.62159   1
  19   0  -2 29.0897 5.43818   3
 -19   0   2 31.6850 11.3570   1
  19   0  -2 24.6699 7.62015   1
  18   0  -2 29.6417 4.67100   3
 -18   0   2 22.4178 12.4869   1
  18   0  -2 28.5712 8.22845   1
  17   0  -2 -5.1943 5.44949   1
 -17   0   2 -3.1779 6.27607   1
  17   0  -2 4.90011 4.03209   3
  16   0  -2 6.83004 3.60271   3
  16   0  -2 -0.5169 5.85139   1
 -16   0   2 17.1618 7.52199   1
  15   0  -2 5.30158 5.84204   1
 -15   0   2 1.55565 6.66490   1
 -15   0   2 0.50586 3.09152   3
  14   0  -2 1.59389 4.93163   3
  14   0  -2 0.99318 7.60880   1
 -14   0   2 0.77664 5.00067   3
 -14   0   2 2.19420 5.80421   1
 -13   0   2 135.907 5.10107   2
  13   0  -2 134.566 7.70350   3
 -13   0   2 129.687 5.04644   2
  13   0  -2 137.675 12.1006   1
 -13   0   2 151.097 13.0322   1
 -13   0   2 127.340 7.40217   3
 -12   0   2 125.358 4.67452   2
 -12   0   2 117.133 4.61442   2
 -12   0   2 115.577 6.69628   3
 -12   0   2 117.706 10.8194   1
  12   0  -2 120.992 12.3289   1
  12   0  -2 123.620 7.06098   3
 -11   0   2 87.2624 3.56859   2
  11   0  -2 88.9380 5.80244   3
 -11   0   2 86.7362 3.50983   2
 -11   0   2 84.4602 9.15938   1
 -11   0   2 92.4364 5.62148   3
  11   0  -2 92.8451 9.66487   1
 -10   0   2 101.462 3.90277   2
 -10   0   2 99.2122 5.73478   3
 -10   0   2 86.7963 8.89125   1
  10   0  -2 81.3154 8.62342   1
  10   0  -2 117.605 5.98875   3
 -10   0   2 96.1303 3.93247   2
  -9   0   2 2644.42 96.9774   1
   9   0  -2 2664.69 96.8713   1
  -9   0   2 2427.11 92.6493   3
   7   0  -2 2143.68 76.8032   1
  -7   0   2 1937.01 76.4325   1
  -5   0   2 1301.70 50.1748   1
  -5   0   2 1315.24 47.9096   3
   5   0  -2 1368.67 50.3265   1
  -4   0   2 2337.20 91.3510   1
   4   0  -2 2659.72 91.4317   1
   1   0  -2 82.5243 5.03406   1
   1   0  -2 84.8083 3.41380   2
  -1   0   2 84.4005 3.43616   2
  -3   0  -2 470.404 16.6972   2
   3   0   2 448.886 16.7190   3
   3   0   2 458.041 18.8734   1
  -3   0  -2 448.543 16.7040   3
   3   0   2 471.694 16.6884   2
  -3   0  -2 441.833 18.7170   1
  -4   0  -2 26.3754 4.04573   1
   4   0   2 25.5824 2.25423   3
  -4   0  -2 39.6025 2.25170   2
  -4   0  -2 27.6676 2.25061   3
   4   0   2 27.0397 3.87290   1
   4   0   2 32.6366 2.10983   2
  -5   0  -2 1367.28 50.7875   1
   5   0   2 1321.35 50.5502   1
   5   0   2 1340.53 47.7222   2
  -5   0  -2 1289.89 47.8324   3
   6   0   2 1311.50 48.5687   1
  -6   0  -2 1216.89 44.9742   2
  -6   0  -2 1228.02 45.1766   3
  -6   0  -2 1232.33 48.5054   1
   6   0   2 1278.24 44.9971   2
   6   0   2 1242.77 45.2209   3
   7   0   2 10.8862 1.52456   2
   7   0   2 10.0571 4.17769   1
  -7   0  -2 11.5305 1.67054   2
  -7   0  -2 11.7888 2.28294   3
  -7   0  -2 15.6882 4.74874   1
   7   0   2 8.85129 1.87615   3
  -8   0  -2 53.8228 3.46824   2
  -8   0  -2 54.3772 7.48725   1
   8   0   2 67.6302 3.39341   2
   8   0   2 63.0396 4.09643   3
  -9   0  -2 3292.29 122.775   3
   9   0   2 3402.41 127.325   1
  -9   0  -2 3592.48 127.799   1
 -10   0  -2 1166.02 42.6271   3
 -10   0  -2 1164.52 42.1196   2
 -10   0  -2 1156.55 48.1645   1
  10   0   2 1173.84 42.6910   3
  11   0   2 1377.29 48.2450   3
 -11   0  -2 1328.33 48.1425   3
 -11   0  -2 1268.38 47.4933   2
  11   0   2 1289.73 53.4810   1
 -12   0  -2 3221.29 115.028   3
  12   0   2 3192.29 121.072   1
 -12   0  -2 3144.63 114.310   2
 -12   0  -2 3229.02 121.922   1
  13   0   2 34.6863 8.45904   1
 -13   0  -2 26.7653 8.82607   1
 -14   0  -2 3628.92 135.454   1
 -14   0  -2 3536.65 126.772   2
 -14   0  -2 3521.34 127.691   3
  14   0   2 3633.56 127.815   3
  14   0   2 3396.96 134.496   1
 -15   0  -2 107.890 13.7392   1
  15   0   2 104.447 7.30061   3
 -15   0  -2 109.773 5.50294   2
 -15   0  -2 100.532 7.44867   3
  15   0   2 110.614 12.3872   1
 -16   0  -2 52.7405 9.96604   1
  16   0   2 71.0136 10.9528   1
 -16   0  -2 58.6131 3.99723   2
  16   0   2 52.6966 5.69052   3
 -16   0  -2 53.5950 6.09166   3
  17   0   2 40.4362 4.72179   3
  17   0   2 54.6786 10.1060   1
 -17   0  -2 37.8185 9.78788   1
 -17   0  -2 35.1443 3.53058   2
  18   0   2 101.870 12.7581   1
 -18   0  -2 97.1418 5.45176   2
  18   0   2 103.637 7.61016   3
 -18   0  -2 103.690 5.23357   2
 -18   0  -2 75.4796 13.1447   1
 -19   0  -2 -1.7801 1.75937   2
 -19   0  -2 1.26382 8.98880   1
  19   0   2 5.04283 6.49529   1
  19   0   2 2.73470 3.97394   3
 -19   0  -2 3.08576 2.04971   2
 -20   0  -2 68.0995 4.60310   2
  20   0   2 78.9799 7.50374   3
 -20   0  -2 55.7971 12.5871   1
  20   0   2 61.6359 11.5286   1
 -20   0  -2 80.1809 4.57572   2
  21   0   2 70.0606 13.3101   1
 -21   0  -2 91.9581 4.75636   2
 -21   0  -2 91.1762 4.78796   2
 -21   0  -2 70.5949 13.6055   1
  21   0   2 75.9048 7.78130   3
 -22   0  -2 -7.9966 10.4775   1
 -22   0  -2 4.67099 1.65751   2
  22   0   2 3.35914 4.25911   3
 -22   0  -2 6.14105 1.63401   2
  22   0   2 12.4248 8.67862   1
  23   0   2 0.09035 4.03504   3
  23   0   2 -12.663 8.94268   1
 -23   0  -2 -8.3394 12.7056   1
  24   0   2 21.7916 10.6607   1
  24   0   2 19.2735 7.98400   3
  25  -1  -2 0.61960 4.15865   3
  25   1  -2 11.1291 6.08400   3
  25   1  -2 5.70912 13.6772   1
  24  -1  -2 6.47320 4.37271   3
  24  -1  -2 -4.9990 8.14148   1
 -24  -1   2 4.58867 15.8121   1
  24   1  -2 13.9984 9.02768   1
  24   1  -2 8.41515 5.08409   3
  23  -1  -2 -0.1665 7.91981   1
  23  -1  -2 2.36047 4.60610   3
 -23  -1   2 -21.893 11.8827   1
  23   1  -2 -2.3847 7.82340   1
  23   1  -2 -2.4348 5.03017   3
  22  -1  -2 103.271 8.78544   3
 -22  -1   2 63.4510 14.7793   1
  22  -1  -2 67.5177 11.8618   1
  22   1  -2 106.099 10.1314   3
  22   1  -2 85.8859 13.9297   1
 -21  -1   2 -10.233 8.76951   1
  21  -1  -2 3.57195 3.83136   3
 -21  -1   2 3.04575 1.48946   2
  21  -1  -2 0.50555 6.30829   1
 -21  -1   2 7.84781 1.63476   2
  21   1  -2 3.93573 5.25071   3
  21   1  -2 15.0708 12.7296   1
 -21   1   2 9.85231 16.6250   1
  20  -1  -2 38.4817 5.18880   3
 -20  -1   2 25.9682 3.05057   2
 -20  -1   2 33.3315 3.17882   2
  20  -1  -2 37.8165 9.45426   1
 -20  -1   2 35.9067 10.2977   1
  20   1  -2 30.9229 9.86844   1
  20   1  -2 29.0147 5.68485   3
 -19  -1   2 30.5480 3.39130   2
 -19  -1   2 28.8186 2.49568   2
  19  -1  -2 22.4754 7.73534   1
  19  -1  -2 41.3205 5.38144   3
 -19  -1   2 39.4188 11.0409   1
  19   1  -2 30.0627 5.14215   3
  19   1  -2 9.28932 7.44769   1
 -18  -1   2 0.18967 1.84568   2
  18  -1  -2 -3.2881 3.53412   3
 -18  -1   2 -0.7770 7.99819   1
 -18  -1   2 -1.7313 1.72424   2
  18   1  -2 0.63575 3.96167   3
  18   1  -2 5.91188 6.28129   1
  17  -1  -2 56.9333 6.48209   3
 -17  -1   2 47.5499 10.4061   1
  17  -1  -2 50.0010 9.42945   1
 -17  -1   2 53.6155 4.13949   2
 -17  -1   2 51.8491 3.88083   2
  17   1  -2 65.4251 7.19986   3
  17   1  -2 51.4328 9.92518   1
 -16  -1   2 257.191 9.80892   2
 -16  -1   2 236.566 9.61551   2
 -16  -1   2 261.932 19.2038   1
  16  -1  -2 228.727 17.0429   1
  16   1  -2 219.545 17.2959   1
  16   1  -2 235.847 12.1759   3
 -16   1   2 216.206 11.0244   3
 -15  -1   2 324.541 22.6228   1
 -15  -1   2 361.155 13.3259   2
  15  -1  -2 296.331 19.4433   1
 -15  -1   2 338.165 13.1101   2
  15   1  -2 321.894 20.7919   1
  15   1  -2 361.192 15.4238   3
 -15   1   2 350.673 18.4422   3
 -14  -1   2 251.861 9.96522   2
 -14  -1   2 200.171 14.2961   3
  14  -1  -2 265.069 11.5362   3
 -14  -1   2 255.670 18.1566   1
 -14  -1   2 259.099 10.1435   2
  14  -1  -2 235.227 15.9183   1
  14   1  -2 240.749 16.8842   1
  14   1  -2 258.151 12.1766   3
 -14   1   2 255.021 11.2870   3
 -13  -1   2 5.56790 1.86117   2
 -13  -1   2 5.98762 6.31390   1
  13  -1  -2 2.17215 4.88965   1
 -13  -1   2 8.72175 3.58785   3
  13  -1  -2 8.99544 3.32503   3
  13   1  -2 3.56916 5.43631   1
  13   1  -2 7.08100 3.70006   3
 -13   1   2 -1.5763 2.58118   1
 -13   1   2 6.77860 2.90130   3
 -12  -1   2 4.44861 1.69847   2
  12  -1  -2 3.03836 2.50829   3
  12  -1  -2 -0.1987 4.22625   1
 -12  -1   2 3.70622 3.13693   3
 -12  -1   2 -0.0870 5.92182   1
 -12   1   2 3.71632 2.57589   3
  12   1  -2 5.75750 3.66301   3
  12   1  -2 7.46571 5.11920   1
 -12   1   2 1.03653 2.80846   1
  11  -1  -2 140.742 7.15528   3
 -11  -1   2 145.049 12.1528   1
  11  -1  -2 139.133 10.7229   1
 -11  -1   2 142.463 6.24314   2
 -11  -1   2 139.851 7.70870   3
  11   1  -2 154.561 7.83394   3
 -11   1   2 121.145 9.63778   1
 -11   1   2 143.469 7.00255   3
  11   1  -2 133.716 11.3615   1
  10  -1  -2 40.9997 4.28820   3
  10  -1  -2 35.1762 5.65060   1
 -10  -1   2 63.2368 8.51422   1
 -10  -1   2 60.0475 5.04210   3
 -10  -1   2 49.5305 3.46258   2
 -10   1   2 46.6516 4.24632   3
 -10   1   2 50.6962 6.75900   1
  10   1  -2 39.3100 6.79315   1
  10   1  -2 55.0601 5.17625   3
   9  -1  -2 223.095 12.9651   1
  -9  -1   2 238.491 14.6080   1
  -9  -1   2 226.013 9.23546   2
  -9  -1   2 242.153 10.2322   3
   9  -1  -2 237.004 9.87936   3
   9   1  -2 237.881 10.3728   3
   9   1  -2 229.858 14.0158   1
  -9   1   2 231.731 12.7489   1
  -9   1   2 228.189 9.71504   3
  -8  -1   2 1080.66 49.4182   1
   8  -1  -2 1093.37 42.4504   1
  -8  -1   2 1075.94 39.6515   3
  -8  -1   2 1106.71 39.0496   2
   8  -1  -2 1118.05 39.4268   3
   8   1  -2 1044.97 39.6845   3
   8   1  -2 993.766 46.1347   1
  -8   1   2 1096.33 39.3945   3
  -8   1   2 1078.97 42.1823   1
   7  -1  -2 746.567 27.3106   3
  -7  -1   2 717.052 27.5530   3
  -7  -1   2 748.494 27.0107   2
   7  -1  -2 766.734 29.9198   1
  -7  -1   2 747.941 32.5229   1
   7   1  -2 739.790 26.9955   2
  -7   1   2 720.888 27.2380   3
   7   1  -2 746.272 31.3291   1
   7   1  -2 731.757 27.5966   3
  -7   1   2 736.954 29.6125   1
   6  -1  -2 756.626 28.4738   3
   6  -1  -2 776.129 27.8041   2
  -6  -1   2 754.453 28.7085   3
  -6  -1   2 789.048 32.2878   1
   6  -1  -2 745.482 30.3983   1
   6  -1  -2 770.037 27.7888   2
  -6  -1   2 794.135 28.3223   2
   6   1  -2 788.230 28.7833   3
   6   1  -2 799.716 32.5334   1
  -6   1   2 748.652 28.4530   3
  -6   1   2 816.457 30.5351   1
   6   1  -2 795.825 28.3099   2
  -5  -1   2 330.728 12.6318   2
   5  -1  -2 335.445 12.7620   3
  -5  -1   2 318.441 12.9997   3
  -5  -1   2 346.670 16.1577   1
   5  -1  -2 341.767 12.1776   2
   5  -1  -2 326.944 14.2882   1
   5   1  -2 328.293 12.9951   3
  -5   1   2 341.668 14.1748   1
   5   1  -2 344.885 12.6476   2
   4  -1  -2 788.778 28.0561   2
  -4  -1   2 754.051 28.3423   2
   4  -1  -2 765.511 28.4208   3
   4  -1  -2 791.436 29.5006   1
  -4  -1   2 749.515 28.5460   3
  -4  -1   2 801.783 31.4904   1
  -4   1   2 783.118 29.2159   1
   4   1  -2 817.875 28.4022   2
   4   1  -2 784.629 31.7487   1
   4   1  -2 775.742 28.5767   3
  -3  -1   2 567.577 20.5803   2
  -3  -1   2 549.559 23.0307   1
  -3  -1   2 560.825 20.6809   3
   3  -1  -2 560.793 21.1847   1
   3   1  -2 570.535 20.5889   2
  -3   1   2 551.748 20.7191   1
   3   1  -2 564.558 20.6872   3
   3   1  -2 566.649 23.2124   1
  -2  -1   2 1972.02 70.7385   1
   2  -1  -2 1875.89 68.5454   1
   2   1  -2 1884.64 70.5126   1
   0  -1  -2 898.323 33.4853   1
   0  -1   2 929.501 35.0149   1
   0  -1   2 903.157 33.0476   2
   0   1  -2 931.420 34.9964   1
   1  -1   2 2116.32 76.6359   1
  -1  -1  -2 2119.77 75.7238   1
  -1   1  -2 2032.82 76.4979   1
  -2  -1  -2 635.351 23.0240   3
   2  -1   2 659.817 24.9694   1
   2  -1   2 626.778 22.7858   2
  -2  -1  -2 633.134 24.3371   1
   2   1   2 558.975 24.9548   1
  -2   1  -2 635.733 22.7986   2
   2   1   2 630.857 23.0412   3
  -3  -1  -2 173.759 11.3602   1
  -3  -1  -2 169.302 7.02752   3
   3  -1   2 169.852 6.62333   2
  -3   1  -2 163.784 8.71489   1
  -3   1  -2 163.179 6.64416   2
   3   1   2 164.303 8.40105   1
   3   1   2 167.475 7.06667   3
   4  -1   2 1.73625 2.61468   1
  -4  -1  -2 -0.9963 2.84987   1
  -4  -1  -2 -1.4185 1.78111   3
   4  -1   2 -1.5132 1.15875   2
   4  -1   2 -0.0176 0.58684   3
  -4   1  -2 -0.8612 1.09971   2
   4   1   2 -0.3126 1.76204   3
  -4   1  -2 -0.2821 0.62116   3
   5  -1   2 -0.0388 0.87209   3
  -5  -1  -2 0.12588 1.58361   2
   5  -1   2 2.19956 1.28528   2
  -5  -1  -2 -0.0924 3.14362   1
   5  -1   2 -2.0121 3.14795   1
  -5   1  -2 1.22428 1.28079   2
   5   1   2 0.00527 3.26062   1
  -5   1  -2 0.54893 2.87020   1
  -5   1  -2 0.50822 0.92874   3
   5   1   2 1.39309 1.97925   3
   6  -1   2 1545.04 58.3613   1
  -6  -1  -2 1599.99 58.9219   1
  -6  -1  -2 1466.74 55.0271   2
  -6  -1  -2 1512.46 55.3929   3
   6  -1   2 1577.48 54.8832   2
  -6   1  -2 1423.68 58.4506   1
   6   1   2 1560.86 58.5591   1
  -6   1  -2 1550.37 54.7179   3
   6   1   2 1520.31 55.4295   3
  -7  -1  -2 106.831 5.88521   3
  -7  -1  -2 114.759 9.37300   1
   7  -1   2 106.992 4.74001   3
  -7  -1  -2 106.676 5.20071   2
   7  -1   2 109.262 4.83416   2
   7  -1   2 107.089 8.41640   1
  -7   1  -2 107.640 9.02654   1
   7   1   2 106.423 9.19220   1
  -7   1  -2 110.425 4.88068   2
  -7   1  -2 111.016 4.75269   3
   7   1   2 106.232 5.94691   3
   8  -1   2 124.762 9.36479   1
   8  -1   2 121.257 5.40612   2
   8  -1   2 124.120 5.54993   3
  -8  -1  -2 121.956 6.52083   3
  -8  -1  -2 125.532 5.84622   2
  -8  -1  -2 154.038 11.2401   1
  -8   1  -2 131.408 5.51955   2
  -8   1  -2 133.973 5.53620   3
  -8   1  -2 134.589 9.96691   1
   8   1   2 130.474 6.65093   3
   8   1   2 126.360 9.63666   1
  -9  -1  -2 374.911 14.1891   2
   9  -1   2 383.049 18.6101   1
  -9  -1  -2 385.186 14.8434   3
   9  -1   2 364.710 14.0236   3
   9  -1   2 365.830 13.8147   2
  -9  -1  -2 381.447 19.7766   1
  -9   1  -2 373.263 18.5700   1
   9   1   2 362.349 14.7926   3
  -9   1  -2 349.635 13.9689   3
  -9   1  -2 372.510 13.8665   2
   9   1   2 359.987 18.7432   1
 -10  -1  -2 87.2767 5.80387   3
  10  -1   2 94.4904 4.29506   2
  10  -1   2 92.6904 4.82046   3
 -10  -1  -2 98.3227 10.6980   1
  10  -1   2 89.6733 8.80610   1
 -10  -1  -2 86.7961 4.90677   2
 -10   1  -2 96.6024 4.42221   2
  10   1   2 99.8740 9.91009   1
 -10   1  -2 94.2164 9.81711   1
 -10   1  -2 90.3817 4.72992   3
  10   1   2 92.7566 5.94036   3
 -11  -1  -2 4.64749 2.05913   2
 -11  -1  -2 9.92270 3.48082   3
 -11  -1  -2 13.7157 6.26944   1
  11  -1   2 6.52615 2.17356   3
  11  -1   2 3.09660 1.45609   2
  11  -1   2 3.60991 4.87126   1
  11   1   2 15.5095 3.17703   3
  11   1   2 14.9165 5.61000   1
 -11   1  -2 4.12385 5.17344   1
 -11   1  -2 4.56274 2.19751   3
 -11   1  -2 5.09358 1.67048   2
 -12  -1  -2 1665.96 60.9652   2
  12  -1   2 1726.89 61.1315   3
  12  -1   2 1717.18 67.4994   1
  12  -1   2 1638.93 60.5673   2
 -12  -1  -2 1718.35 68.3046   1
 -12  -1  -2 1675.34 61.8267   3
 -12   1  -2 1697.55 61.0617   3
 -12   1  -2 1629.74 67.1555   1
  12   1   2 1710.20 68.0564   1
  12   1   2 1729.52 62.0809   3
 -12   1  -2 1640.38 60.6116   2
  13  -1   2 207.158 8.91997   3
 -13  -1  -2 172.311 9.19892   2
  13  -1   2 195.671 21.2570   1
  13  -1   2 198.754 7.84180   2
 -13  -1  -2 210.444 10.1624   3
 -13  -1  -2 190.537 15.8339   1
  13   1   2 177.459 10.2069   3
  13   1   2 162.876 14.4038   1
 -13   1  -2 193.650 15.8682   1
 -13   1  -2 197.971 8.01140   2
 -13   1  -2 193.517 8.77846   3
 -14  -1  -2 19.5972 8.27600   1
 -14  -1  -2 2.35235 2.83271   2
 -14  -1  -2 9.73593 2.52918   2
  14  -1   2 9.13768 6.19686   1
  14  -1   2 4.36034 2.66779   3
 -14  -1  -2 -2.8926 3.94139   3
 -14   1  -2 1.48856 2.66562   3
  14   1   2 -1.1725 5.31420   1
  14   1   2 1.72958 3.77200   3
 -14   1  -2 4.56645 1.79289   2
 -14   1  -2 3.34596 6.32596   1
 -15  -1  -2 6.61189 7.21886   1
 -15  -1  -2 2.90981 2.37568   2
  15  -1   2 2.04382 2.61002   3
 -15  -1  -2 -3.6545 2.24857   2
 -15   1  -2 -0.5791 2.54592   3
 -15   1  -2 0.42113 1.67775   2
 -15   1  -2 3.77858 5.97422   1
  15   1   2 7.58599 6.11050   1
  15   1   2 -0.4918 3.40737   3
  16  -1   2 26.5176 3.60895   3
 -16  -1  -2 15.6782 8.39944   1
 -16  -1  -2 26.1498 3.25528   2
  16  -1   2 31.3856 8.18490   1
 -16   1  -2 26.2288 2.32742   2
 -16   1  -2 24.1582 3.62161   3
  16   1   2 26.6669 7.67091   1
  16   1   2 40.3329 5.50269   3
 -16   1  -2 25.1300 8.65325   1
 -17  -1  -2 18.3086 2.91925   2
  17  -1   2 4.73977 6.09813   1
  17  -1   2 15.9184 3.76681   3
 -17  -1  -2 13.7632 2.83415   2
 -17  -1  -2 11.7364 9.21190   1
  17   1   2 14.5332 4.17664   3
  17   1   2 12.9735 6.28417   1
 -17   1  -2 14.3823 3.78113   3
 -17   1  -2 13.1002 1.92549   2
 -17   1  -2 10.8460 8.09477   1
 -18  -1  -2 0.47472 2.38924   2
 -18  -1  -2 0.28828 2.47599   2
  18  -1   2 -2.1077 3.14573   3
 -18  -1  -2 -8.3216 7.15606   1
  18  -1   2 1.38829 5.67062   1
 -18   1  -2 3.48248 3.02349   3
 -18   1  -2 2.86385 7.50264   1
  18   1   2 -2.4856 5.57362   1
  18   1   2 0.48454 4.20699   3
 -18   1  -2 -0.1045 1.49651   2
 -19  -1  -2 121.789 6.73065   2
 -19  -1  -2 127.614 16.7270   1
  19  -1   2 130.988 8.00276   3
  19  -1   2 103.269 14.1626   1
 -19  -1  -2 128.840 7.14695   2
 -19   1  -2 127.553 5.43183   2
 -19   1  -2 117.895 16.4309   1
 -19   1  -2 127.407 5.45272   2
  19   1   2 132.876 9.46255   3
  19   1   2 115.328 14.2020   1
 -20  -1  -2 7.13512 2.72193   2
 -20  -1  -2 5.44234 10.8561   1
  20  -1   2 8.04680 3.66446   3
 -20  -1  -2 2.89038 2.56443   2
  20  -1   2 8.03974 7.54744   1
  20   1   2 6.75159 4.27701   3
 -20   1  -2 14.4494 9.78524   1
  20   1   2 7.81360 7.57386   1
 -21  -1  -2 6.15720 2.75091   2
 -21  -1  -2 10.8135 10.9776   1
  21  -1   2 6.24265 3.63257   3
  21  -1   2 5.82259 8.44112   1
 -21  -1  -2 0.58741 2.49784   2
  21   1   2 6.31887 7.15674   1
  21   1   2 2.01692 4.15720   3
 -21   1  -2 12.8741 9.95188   1
 -22  -1  -2 21.9925 14.1999   1
  22  -1   2 19.2310 4.20250   3
 -22  -1  -2 17.3686 2.90741   2
 -22  -1  -2 20.9959 3.25964   2
  22  -1   2 15.9790 9.54253   1
  22   1   2 28.4883 5.57170   3
  22   1   2 15.1753 8.76251   1
 -22   1  -2 14.5879 16.7068   1
  23  -1   2 3.73421 9.75424   1
  23  -1   2 2.86300 3.45765   3
 -23  -1  -2 6.97498 14.9697   1
 -23  -1  -2 2.72500 2.41211   2
  23   1   2 1.11241 4.66357   3
  23   1   2 -2.9877 9.26920   1
  24  -1   2 1.63071 3.36748   3
 -24  -1  -2 7.87189 17.0369   1
  24   1   2 7.13161 10.0536   1
  24   1   2 5.82130 4.82890   3
  24  -2  -2 1.98398 3.65116   3
 -24  -2   2 -17.663 17.8143   1
  24   2  -2 0.60311 5.50212   3
 -23  -2   2 26.0144 15.4849   1
 -23  -2   2 22.2818 3.15493   2
  23  -2  -2 4.75497 9.54752   1
  23  -2  -2 18.7117 4.29052   3
  23   2  -2 10.0626 13.6935   1
  23   2  -2 22.7575 6.23798   3
 -23   2   2 18.5240 12.5508   1
  22  -2  -2 -17.751 6.46750   1
 -22  -2   2 -3.5834 11.4262   1
 -22  -2   2 -0.5031 2.68571   2
 -22  -2   2 0.81534 2.49210   2
  22  -2  -2 -2.1224 3.50265   3
  22   2  -2 -0.9739 9.14517   1
  22   2  -2 -1.8306 5.28305   3
 -22   2   2 -9.4871 9.52347   1
  21  -2  -2 70.0899 7.18934   3
 -21  -2   2 31.2528 12.8320   1
  21  -2  -2 46.5716 9.96886   1
 -21  -2   2 78.7244 5.58970   2
 -21  -2   2 81.6353 5.68462   2
  21   2  -2 89.4027 11.2584   3
  21   2  -2 39.1143 10.4913   1
 -21   2   2 58.2755 15.0372   1
 -20  -2   2 17.4118 3.21939   2
  20  -2  -2 6.39719 5.84583   1
  20  -2  -2 16.9644 4.21556   3
 -20  -2   2 22.9393 10.9259   1
 -20  -2   2 16.7803 3.17814   2
  20   2  -2 15.2321 5.48286   3
  20   2  -2 12.5639 8.19082   1
  19  -2  -2 35.0553 4.80920   3
 -19  -2   2 30.9412 3.60194   2
 -19  -2   2 31.8499 11.0238   1
  19  -2  -2 19.9691 7.86533   1
 -19  -2   2 34.5896 3.72824   2
  19   2  -2 26.5259 8.69689   1
 -19   2   2 31.0927 12.8641   1
  19   2  -2 38.1343 6.29804   3
  18  -2  -2 7.61993 5.74526   1
 -18  -2   2 7.56626 2.77137   2
 -18  -2   2 3.85836 2.66814   2
  18  -2  -2 2.34821 3.22082   3
 -18  -2   2 4.97962 9.18291   1
  18   2  -2 10.3061 5.37061   3
  18   2  -2 3.81178 7.06881   1
 -18   2   2 0.83045 6.62951   1
  17  -2  -2 20.0337 6.24768   1
 -17  -2   2 26.0239 9.58439   1
 -17  -2   2 21.6468 3.28536   2
 -17  -2   2 16.6278 3.07810   2
  17   2  -2 26.6571 5.65943   3
 -17   2   2 28.5672 8.69987   1
 -16  -2   2 60.5301 5.39253   2
  16  -2  -2 57.8574 9.44264   1
 -16  -2   2 61.1667 12.2283   1
  16  -2  -2 53.3645 6.62249   3
  16   2  -2 75.5497 11.8225   1
 -16   2   2 57.4605 12.4123   1
  16   2  -2 77.3119 7.89297   3
  15  -2  -2 14.6154 6.28355   1
 -15  -2   2 18.4808 3.06351   2
  15  -2  -2 16.7669 3.64147   3
 -15  -2   2 15.5070 8.33164   1
  15   2  -2 24.2414 8.22429   1
 -15   2   2 17.5648 9.12633   1
  15   2  -2 17.5651 4.65413   3
 -14  -2   2 70.3341 5.57634   2
  14  -2  -2 65.6278 9.15473   1
  14  -2  -2 71.2963 5.95943   3
 -14  -2   2 64.2628 11.0130   1
  14   2  -2 72.5058 7.60667   3
 -14   2   2 80.3144 10.7643   1
  14   2  -2 86.4667 11.9262   1
 -13  -2   2 110.812 6.46474   2
  13  -2  -2 105.722 6.70428   3
 -13  -2   2 116.108 13.2519   1
  13  -2  -2 102.330 10.4665   1
  13   2  -2 113.276 8.03112   3
 -13   2   2 97.9730 12.0516   1
  13   2  -2 100.880 11.9167   1
  12  -2  -2 4.52003 2.79501   3
 -12  -2   2 2.65216 6.41435   1
  12  -2  -2 7.65537 5.12374   1
 -12  -2   2 -3.1394 3.83441   3
 -12  -2   2 8.46068 2.80581   2
  12   2  -2 7.78425 5.84343   1
 -12   2   2 0.91198 4.71874   1
  12   2  -2 10.6911 4.10107   3
 -11  -2   2 128.909 14.0605   1
  11  -2  -2 151.404 7.22732   3
  11  -2  -2 121.482 10.5973   1
 -11  -2   2 135.714 7.17310   2
 -11  -2   2 133.833 8.36014   3
 -11   2   2 131.953 10.5421   1
  11   2  -2 143.398 8.27895   3
  11   2  -2 153.043 12.3482   1
 -10  -2   2 877.139 32.1386   2
 -10  -2   2 885.934 32.8526   3
 -10  -2   2 837.933 38.3532   1
  10  -2  -2 835.635 35.5667   1
  10  -2  -2 840.687 31.0765   2
  10  -2  -2 932.850 32.1495   3
  10   2  -2 930.635 33.4581   3
  10   2  -2 863.381 37.8280   1
 -10   2   2 769.294 35.7576   1
  -9  -2   2 2.19583 3.39705   3
  -9  -2   2 -1.5206 4.81710   1
   9  -2  -2 2.56187 1.08836   2
  -9  -2   2 2.28207 3.54628   2
   9  -2  -2 -0.6960 3.26609   1
   9  -2  -2 3.50507 2.16035   3
   9   2  -2 0.76252 2.69350   3
   9   2  -2 5.36916 5.04362   1
  -8  -2   2 431.393 22.0772   1
   8  -2  -2 425.534 19.3052   1
  -8  -2   2 435.948 17.5432   2
   8  -2  -2 423.080 16.2344   2
  -8  -2   2 444.878 17.5731   3
   8  -2  -2 446.475 16.9015   3
   8   2  -2 456.957 17.0671   2
   8   2  -2 434.500 17.5276   3
   8   2  -2 453.698 22.0162   1
  -8   2   2 480.629 22.3660   1
   7  -2  -2 0.51306 2.58886   1
   7  -2  -2 -2.6077 1.71213   3
   7  -2  -2 0.13489 1.16455   2
  -7  -2   2 -2.7057 2.04931   2
  -7  -2   2 -3.3140 4.17636   1
  -7  -2   2 1.60021 2.82761   3
   7   2  -2 1.35358 2.36897   3
  -7   2   2 0.20366 2.24061   1
  -7   2   2 -0.1909 1.93980   1
   7   2  -2 -0.0752 4.14039   1
   7   2  -2 0.03652 1.72153   2
   6  -2  -2 12.1931 2.96134   1
  -6  -2   2 9.34113 2.13644   2
  -6  -2   2 21.0095 3.14733   3
   6  -2  -2 16.7627 2.33764   3
   6  -2  -2 17.1423 1.70310   2
  -6  -2   2 11.6343 5.34445   1
  -6   2   2 16.0224 2.07659   1
   6   2  -2 27.0358 3.14634   3
   6   2  -2 23.4661 2.73814   2
  -6   2   2 15.9828 1.98059   1
   6   2  -2 19.4399 4.78521   1
  -5  -2   2 142.465 7.08440   2
   5  -2  -2 154.546 6.87085   3
  -5  -2   2 180.179 7.46566   3
   5  -2  -2 143.340 8.58541   1
  -5  -2   2 153.181 10.8104   1
   5  -2  -2 155.352 6.47944   2
   5   2  -2 159.309 7.20019   2
   5   2  -2 142.903 10.1822   1
   5   2  -2 155.731 7.37307   3
   4  -2  -2 1926.73 68.2723   1
  -4  -2   2 1875.32 71.3719   1
  -4  -2   2 1867.69 67.8564   2
  -4  -2   2 1854.98 67.8807   3
   4   2  -2 1980.37 71.3061   1
   4   2  -2 1786.06 67.8651   3
  -3  -2   2 1228.65 47.1659   1
  -3  -2   2 1169.15 43.7284   3
  -3  -2   2 1254.36 43.8257   2
   3  -2  -2 1185.33 43.4948   2
   3  -2  -2 1189.97 43.3753   1
   3   2  -2 1200.56 43.7141   3
   3   2  -2 1215.69 43.7963   2
   3   2  -2 1178.76 46.5274   1
  -2  -2   2 1821.83 67.0912   2
   2  -2  -2 1865.22 66.9338   2
  -2  -2   2 1906.20 70.0742   1
  -2  -2   2 1796.82 66.9179   3
   2   2  -2 1929.95 69.8387   1
   2   2  -2 1854.67 66.9605   3
   1  -2  -2 386.978 14.2578   1
   1  -2  -2 347.536 14.4258   3
  -1  -2   2 378.793 14.5775   2
  -1  -2   2 353.264 14.1823   3
  -1  -2   2 386.628 17.4543   1
   1  -2  -2 386.641 14.4167   2
   1   2  -2 390.321 14.6295   2
   1   2  -2 374.247 14.2218   3
   1   2  -2 392.462 17.0728   1
   0  -2  -2 621.580 21.8309   2
   0  -2  -2 539.223 22.1484   3
   0  -2  -2 618.298 22.2612   1
   0  -2   2 555.698 24.2245   1
   0  -2   2 567.815 21.3835   3
   0  -2   2 599.504 21.8486   2
   0   2  -2 581.946 21.8426   2
   0   2  -2 586.846 21.4198   3
   0   2  -2 588.275 24.0903   1
  -1  -2  -2 3.45271 2.51507   3
  -1  -2  -2 2.48567 2.40011   1
   1  -2   2 0.52079 3.39725   1
  -1  -2  -2 2.31061 1.80661   2
   1  -2   2 4.27609 1.33801   3
   1  -2   2 3.14883 1.80519   2
  -1   2  -2 0.97386 3.08566   1
  -1   2  -2 1.39813 1.27725   3
  -1   2  -2 2.21280 1.87623   2
   2  -2   2 74.5481 4.38524   2
  -2  -2  -2 71.2097 4.69827   3
  -2  -2  -2 73.8325 4.50257   2
   2  -2   2 70.0036 3.20685   3
   2  -2   2 73.1028 6.70011   1
  -2  -2  -2 78.1170 5.91504   1
  -2   2  -2 72.5472 4.49875   2
   2   2   2 68.9191 5.03618   1
  -2   2  -2 72.9493 6.23476   1
   2   2   2 69.9235 4.88272   3
  -3  -2  -2 253.645 12.2987   1
   3  -2   2 242.605 8.94742   3
  -3  -2  -2 246.250 10.1779   3
   3  -2   2 228.154 9.79138   2
  -3  -2  -2 257.784 10.1398   2
   3  -2   2 249.408 12.4887   1
  -3   2  -2 245.438 12.2357   1
   3   2   2 245.671 11.4656   1
   3   2   2 240.530 10.3073   3
  -3   2  -2 247.622 12.1912   1
  -3   2  -2 241.125 9.91149   2
  -4  -2  -2 319.020 13.2052   2
  -4  -2  -2 327.351 13.4646   3
  -4  -2  -2 340.384 15.9513   1
   4  -2   2 348.123 15.8989   1
   4  -2   2 335.606 12.9780   2
  -4   2  -2 336.819 13.0733   2
  -4   2  -2 327.237 15.4054   1
   4   2   2 340.623 13.6311   3
   4   2   2 349.417 15.3859   1
  -4   2  -2 348.419 15.5413   1
   5  -2   2 986.538 35.6290   2
  -5  -2  -2 947.372 36.1618   3
  -5  -2  -2 987.404 39.2095   1
  -5  -2  -2 950.253 35.9679   2
  -5   2  -2 960.073 35.6835   2
   5   2   2 975.077 36.2473   3
  -5   2  -2 992.361 38.3756   1
  -5   2  -2 1008.33 38.6151   1
   5   2   2 1007.90 38.7372   1
  -6  -2  -2 696.559 29.6366   2
   6  -2   2 745.139 27.4854   2
  -6  -2  -2 749.092 31.5269   1
  -6  -2  -2 748.998 28.1649   3
   6   2   2 775.898 31.1885   1
  -6   2  -2 751.363 30.7062   1
  -6   2  -2 762.650 30.6404   1
   6   2   2 756.765 28.2646   3
  -6   2  -2 759.268 27.5748   2
  -7  -2  -2 62.4891 7.41759   1
  -7  -2  -2 53.7166 4.80408   3
  -7  -2  -2 51.0505 4.18889   2
   7  -2   2 53.8428 3.50477   2
   7  -2   2 58.9193 2.45970   3
  -7   2  -2 59.0731 3.75456   2
   7   2   2 61.5888 6.69250   1
  -7   2  -2 62.5797 6.99258   1
   7   2   2 63.5782 4.94405   3
  -7   2  -2 60.9455 6.59330   1
  -8  -2  -2 690.635 26.6245   3
  -8  -2  -2 708.173 31.0779   1
   8  -2   2 703.804 25.6991   2
   8  -2   2 691.550 30.1184   1
  -8  -2  -2 705.165 26.2528   2
   8   2   2 695.825 26.7218   3
  -8   2  -2 691.598 25.7810   2
  -8   2  -2 687.298 29.5036   1
   8   2   2 700.596 30.3354   1
  -8   2  -2 721.841 29.8329   1
   9  -2   2 269.334 15.4715   1
   9  -2   2 270.060 10.1721   3
  -9  -2  -2 267.616 11.3470   2
  -9  -2  -2 279.090 11.9737   3
   9  -2   2 267.035 10.5821   2
  -9  -2  -2 279.422 16.4755   1
  -9   2  -2 267.371 10.7274   2
  -9   2  -2 263.653 14.9837   1
   9   2   2 276.252 12.2138   3
  -9   2  -2 269.126 14.8766   1
   9   2   2 266.180 15.4691   1
  10  -2   2 334.167 12.1978   3
 -10  -2  -2 330.498 13.3220   2
  10  -2   2 319.123 17.8439   1
 -10  -2  -2 303.156 15.0818   3
  10  -2   2 324.799 12.4447   2
 -10  -2  -2 341.889 19.0385   1
 -10  -2  -2 295.670 14.3181   2
  10   2   2 328.751 14.5870   3
 -10   2  -2 325.490 12.5975   2
 -10   2  -2 327.325 17.2882   1
 -10   2  -2 316.792 17.2466   1
  10   2   2 326.541 18.4744   1
  11  -2   2 41.3899 3.25652   2
  11  -2   2 41.3764 3.09121   3
  11  -2   2 40.3829 7.34010   1
 -11  -2  -2 52.6043 5.28887   3
 -11  -2  -2 40.4440 3.88840   2
 -11  -2  -2 49.5061 4.61784   2
 -11  -2  -2 37.3997 8.49653   1
 -11   2  -2 40.5363 6.79307   1
 -11   2  -2 42.1864 3.60256   2
 -11   2  -2 48.2815 7.32526   1
  11   2   2 38.5803 7.20562   1
 -12  -2  -2 1.39609 6.82925   1
  12  -2   2 4.62690 5.43056   1
 -12  -2  -2 -0.6487 2.52576   2
  12  -2   2 2.02172 1.77656   3
 -12  -2  -2 3.04948 2.65865   2
  12  -2   2 3.30680 1.67056   2
  12   2   2 5.81628 3.61819   3
  12   2   2 5.18048 5.91911   1
 -12   2  -2 4.58317 1.93527   2
 -12   2  -2 -6.5542 4.44372   1
 -12   2  -2 2.55657 1.83121   3
 -12   2  -2 10.8010 5.46809   1
  13  -2   2 191.223 8.40562   3
 -13  -2  -2 232.254 17.0340   1
  13  -2   2 192.226 14.3245   1
 -13  -2  -2 209.704 9.65930   2
 -13  -2  -2 203.030 9.38651   2
  13  -2   2 186.880 8.13394   2
  13   2   2 200.146 15.3322   1
  13   2   2 193.647 10.6904   3
 -13   2  -2 204.300 8.41520   2
 -13   2  -2 204.616 14.5486   1
 -13   2  -2 192.987 14.4491   1
  14  -2   2 120.743 5.75853   2
  14  -2   2 144.643 13.3092   1
 -14  -2  -2 140.319 7.67505   2
 -14  -2  -2 137.613 7.45507   2
  14  -2   2 126.056 6.26068   3
 -14  -2  -2 150.852 15.1809   1
  14   2   2 121.821 12.9429   1
 -14   2  -2 118.472 6.22538   3
 -14   2  -2 129.152 6.12178   2
 -14   2  -2 132.607 12.4905   1
 -14   2  -2 124.082 12.0410   1
  14   2   2 140.218 9.05809   3
  15  -2   2 5.81204 5.73381   1
 -15  -2  -2 5.17316 2.95145   2
 -15  -2  -2 2.75687 2.94418   2
 -15  -2  -2 17.1346 8.76676   1
  15  -2   2 5.34082 1.56952   2
  15  -2   2 4.61172 2.22696   3
  15   2   2 7.84552 4.41052   3
 -15   2  -2 1.12742 5.65575   1
 -15   2  -2 2.64309 1.86106   2
 -15   2  -2 11.4484 5.63379   1
  15   2   2 9.13952 7.34178   1
 -15   2  -2 3.04363 2.22110   3
 -16  -2  -2 70.8692 14.7649   1
 -16  -2  -2 75.5338 6.29016   2
 -16  -2  -2 83.1926 6.10541   2
  16  -2   2 78.7822 5.15582   3
  16  -2   2 74.4334 11.0171   1
 -16   2  -2 95.0048 10.8634   1
 -16   2  -2 84.0650 5.06153   3
  16   2   2 70.5836 10.8327   1
 -16   2  -2 78.2562 10.7236   1
  16   2   2 83.8514 8.05000   3
 -16   2  -2 79.9718 4.42829   2
 -17  -2  -2 0.70585 3.02780   2
 -17  -2  -2 11.9152 8.68649   1
  17  -2   2 1.07597 2.27019   3
 -17  -2  -2 2.44836 3.02789   2
  17  -2   2 4.18734 5.25482   1
 -17   2  -2 4.92798 1.62680   2
 -17   2  -2 2.66676 2.28766   3
  17   2   2 7.29626 4.28783   3
 -17   2  -2 14.4448 6.53055   1
  17   2   2 0.25119 5.77242   1
 -18  -2  -2 2.82475 4.72883   2
 -18  -2  -2 15.4708 10.0350   1
  18  -2   2 2.70752 6.95445   1
 -18  -2  -2 1.42714 2.84821   2
  18  -2   2 -0.8058 2.44124   3
 -18   2  -2 -2.7091 5.55068   1
 -18   2  -2 12.2361 6.34141   1
  18   2   2 5.45403 6.13721   1
  18   2   2 6.32783 4.88852   3
 -18   2  -2 2.35054 2.26809   3
 -18   2  -2 1.31634 1.29781   2
  19  -2   2 3.94646 6.16901   1
 -19  -2  -2 -2.3356 2.91870   2
 -19  -2  -2 -13.364 7.67951   1
 -19  -2  -2 -2.4021 3.02242   2
 -19   2  -2 6.16345 6.85347   1
 -19   2  -2 -1.3614 2.72126   3
  19   2   2 6.60510 7.00787   1
 -19   2  -2 1.53254 6.50346   1
  19   2   2 -1.8198 4.21457   3
  20  -2   2 2.41888 8.65120   1
  20  -2   2 8.44320 4.69484   3
 -20  -2  -2 3.74429 10.3238   1
 -20  -2  -2 7.07689 3.33995   2
 -20  -2  -2 14.4560 3.46954   2
  20   2   2 4.47282 5.38344   3
 -20   2  -2 8.45590 2.65513   3
  20   2   2 5.40304 8.27300   1
 -20   2  -2 9.70852 7.46638   1
 -20   2  -2 6.36444 7.85013   1
 -21  -2  -2 20.7017 13.5925   1
  21  -2   2 16.9081 8.38623   1
 -21  -2  -2 18.4536 5.87990   2
  21  -2   2 15.9397 3.28230   3
 -21  -2  -2 15.3664 3.73128   2
 -21   2  -2 8.55738 9.35310   1
  21   2   2 34.4276 11.8826   3
 -22  -2  -2 9.90576 12.9039   1
  22  -2   2 4.01302 2.83727   3
  22  -2   2 3.66880 8.36538   1
 -22  -2  -2 6.19804 3.33002   2
  22   2   2 -8.1914 9.01071   1
  22   2   2 6.15168 5.14260   3
 -22   2  -2 17.5525 12.3395   1
 -23  -2  -2 3.74128 3.08730   2
 -23  -2  -2 2.79147 16.7124   1
  23  -2   2 1.73995 2.64100   3
  23   2   2 -2.2566 5.04482   3
  23  -3  -2 8.62626 3.36498   3
 -23  -3   2 22.4478 16.9686   1
 -23  -3   2 7.32346 3.64154   2
  23   3  -2 7.33661 6.68525   3
  22  -3  -2 2.53896 3.16096   3
 -22  -3   2 1.05801 3.52452   2
 -22   3   2 12.9290 11.3989   1
  22   3  -2 -5.4023 6.00161   3
  21  -3  -2 8.80143 8.45104   1
  21  -3  -2 7.30244 3.42623   3
 -21  -3   2 -1.0988 13.5544   1
 -21  -3   2 1.18767 3.57466   2
  21   3  -2 2.82637 5.87256   3
  21   3  -2 -0.8006 8.56675   1
  20  -3  -2 -0.3409 2.93921   3
  20  -3  -2 9.92610 7.94165   1
 -20  -3   2 2.07394 10.6571   1
 -20  -3   2 0.21574 3.35729   2
  20   3  -2 6.55671 6.15517   3
 -20   3   2 -0.7336 7.00734   1
  20   3  -2 5.11796 7.52978   1
  19  -3  -2 17.1419 3.71430   3
 -19  -3   2 13.8837 3.84859   2
  19  -3  -2 8.99416 7.27041   1
 -19  -3   2 40.9289 13.0617   1
 -19   3   2 13.5668 9.31392   1
  19   3  -2 15.0774 9.03367   1
  19   3  -2 15.3526 6.16020   3
 -19   3   2 15.6905 7.20466   1
  18  -3  -2 42.4178 8.92316   1
 -18  -3   2 22.2643 11.3846   1
  18  -3  -2 47.3337 5.34206   3
 -18  -3   2 47.1398 6.41293   2
  18   3  -2 42.0952 10.3189   1
  18   3  -2 55.6123 6.93602   3
 -18   3   2 30.8465 7.62901   1
 -18   3   2 33.8796 6.82924   1
 -17  -3   2 4.17998 9.91301   1
  17  -3  -2 2.88597 3.03966   3
 -17  -3   2 3.90781 3.30842   2
  17  -3  -2 2.32456 5.53374   1
  17   3  -2 -2.0779 5.16313   3
  17   3  -2 2.94760 6.49823   1
 -17   3   2 4.49689 4.78887   1
 -17   3   2 -2.6884 5.02904   1
 -16  -3   2 6.42347 3.50474   2
 -16  -3   2 8.45289 9.66933   1
  16  -3  -2 0.24363 4.60177   3
  16  -3  -2 9.32745 8.72817   1
  16   3  -2 -0.0708 6.02674   1
 -16   3   2 -1.3571 4.01860   1
 -16   3   2 11.0579 5.18444   1
  16   3  -2 -0.5520 4.48947   3
  15  -3  -2 0.74715 2.91989   3
 -15  -3   2 10.0450 8.89330   1
 -15  -3   2 1.48326 6.48842   2
 -15   3   2 -0.5282 3.99405   1
  15   3  -2 -4.2179 5.29754   1
  15   3  -2 2.94083 5.03184   3
 -15   3   2 5.36586 4.77914   1
 -14  -3   2 428.045 17.3031   2
 -14  -3   2 420.588 26.4305   1
  14  -3  -2 401.094 16.4079   3
  14  -3  -2 358.686 21.3593   1
  14   3  -2 442.393 18.5665   3
 -14   3   2 404.574 19.6209   1
  14   3  -2 399.444 24.5799   1
 -14   3   2 388.970 18.9750   1
 -13  -3   2 2.49890 13.8877   1
  13  -3  -2 -2.2654 4.70537   1
 -13  -3   2 -5.5987 3.13769   2
  13  -3  -2 -1.1386 2.78855   3
  13  -3  -2 -0.8187 1.29296   2
 -13   3   2 -1.0651 3.98648   1
  13   3  -2 3.31675 4.30341   3
  13   3  -2 -1.6565 6.33911   1
 -13   3   2 0.61622 3.69607   1
 -12  -3   2 100.062 7.14648   2
 -12  -3   2 101.893 13.5865   1
  12  -3  -2 98.9804 6.17163   3
  12  -3  -2 101.068 9.96870   1
  12  -3  -2 95.5783 4.59044   2
  12   3  -2 98.1193 17.5851   1
 -12   3   2 99.9605 7.61325   1
 -12   3   2 92.1857 7.63585   1
  12   3  -2 109.638 8.12680   3
  11  -3  -2 115.916 9.70192   1
 -11  -3   2 102.961 7.11705   2
  11  -3  -2 110.956 5.13511   2
 -11  -3   2 112.430 14.2012   1
  11  -3  -2 124.040 6.35693   3
  11   3  -2 96.2295 12.0548   1
  11   3  -2 104.545 8.08608   3
 -11   3   2 103.726 7.06184   1
 -11   3   2 106.672 7.16225   1
  10  -3  -2 88.7909 8.63931   1
 -10  -3   2 93.8262 12.8960   1
 -10  -3   2 97.0991 6.72259   2
  10  -3  -2 88.0220 4.73568   2
  10  -3  -2 89.6917 5.62332   3
  10   3  -2 91.5770 7.49553   3
 -10   3   2 95.2651 5.23758   1
  10   3  -2 97.6990 11.5391   1
 -10   3   2 106.941 5.34983   1
   9  -3  -2 411.057 15.4711   3
   9  -3  -2 370.025 18.1114   1
  -9  -3   2 392.271 22.7500   1
  -9  -3   2 426.601 16.2511   2
  -9  -3   2 386.760 16.5550   3
   9  -3  -2 385.878 14.9920   2
   9   3  -2 369.639 20.8894   1
   8  -3  -2 11.5732 3.82701   1
  -8  -3   2 13.4773 3.04214   2
  -8  -3   2 19.5794 6.60641   3
   8  -3  -2 17.3745 2.68557   3
  -8  -3   2 22.4678 7.04789   1
   8  -3  -2 13.9986 2.10258   2
   8   3  -2 16.2261 4.81363   3
   8   3  -2 13.9653 5.80278   1
  -7  -3   2 9.79106 2.63619   2
   7  -3  -2 16.8328 2.19796   2
  -7  -3   2 20.1883 3.54437   3
   7  -3  -2 19.2471 2.76560   3
   7  -3  -2 15.3818 3.38838   1
  -7  -3   2 19.9537 6.35272   1
   7   3  -2 11.3654 2.69943   2
   7   3  -2 12.1644 3.15115   3
   7   3  -2 16.2938 5.05254   1
  -6  -3   2 330.403 13.9176   3
  -6  -3   2 336.024 18.3615   1
   6  -3  -2 326.584 13.1048   2
  -6  -3   2 338.128 13.8708   2
   6  -3  -2 327.959 13.2444   3
   6   3  -2 342.705 13.9964   3
   6   3  -2 331.882 17.6783   1
   6   3  -2 349.295 13.8963   2
  -5  -3   2 62.9204 5.13769   3
  -5  -3   2 74.8270 9.01617   1
  -5  -3   2 73.2697 5.09945   2
   5  -3  -2 66.6720 4.33309   3
   5  -3  -2 58.9739 4.12376   2
   5   3  -2 75.9279 5.29836   2
   5   3  -2 70.1633 7.75688   1
   5   3  -2 60.0221 5.04515   3
  -4  -3   2 13.6368 2.64378   3
  -4  -3   2 11.3508 4.72752   1
  -4  -3   2 13.7937 2.55819   2
   4  -3  -2 15.9503 2.33098   3
   4  -3  -2 10.4530 3.32401   2
   4   3  -2 13.5296 2.72663   2
   4   3  -2 15.5142 2.99887   3
   4   3  -2 10.6829 4.44914   1
   3  -3  -2 332.031 13.4249   2
   3  -3  -2 302.826 12.4193   1
  -3  -3   2 321.234 12.7190   3
  -3  -3   2 327.097 16.8212   1
  -3  -3   2 313.967 12.9237   2
   3  -3  -2 298.037 12.4878   3
   3   3  -2 313.993 12.7396   3
   3   3  -2 316.767 15.9752   1
   3   3  -2 306.343 13.0932   2
  -2  -3   2 409.412 16.1982   2
  -2  -3   2 387.694 15.8384   3
   2  -3  -2 414.823 16.0389   2
   2  -3  -2 400.866 16.0593   1
   2  -3  -2 404.281 15.9229   3
  -2  -3   2 426.835 19.8189   1
   2   3  -2 400.949 15.9150   3
   2   3  -2 423.628 18.9301   1
   2   3  -2 438.444 18.4444   2
  -1  -3   2 432.967 19.5044   1
   1  -3  -2 418.388 15.7066   3
   1  -3  -2 423.975 16.2152   1
  -1  -3   2 380.783 15.3356   3
  -1  -3   2 392.883 15.8235   2
   1  -3  -2 402.953 15.6875   2
   1   3  -2 398.865 15.4221   3
   1   3  -2 335.939 16.7689   2
   1   3  -2 415.327 18.3184   1
   0  -3   2 86.7876 7.65439   1
   0  -3   2 80.6488 5.10237   2
   0  -3  -2 75.5080 4.91223   3
   0  -3  -2 83.8882 5.19519   2
   0  -3   2 81.2605 4.36707   3
   0  -3  -2 82.5544 5.74075   1
   0   3  -2 80.0648 5.38822   2
   0   3  -2 76.6096 6.74727   1
   0   3  -2 82.8392 4.47705   3
  -1  -3  -2 13.3050 2.50924   3
  -1  -3  -2 14.7647 2.52734   2
   1  -3   2 14.0001 2.34295   2
   1  -3   2 17.6040 2.03521   3
   1  -3   2 14.4874 4.43063   1
  -1  -3  -2 17.5366 3.43417   1
  -1   3  -2 18.0868 3.88432   1
  -1   3  -2 18.2275 2.91045   2
  -1   3  -2 15.5329 2.09444   3
  -2  -3  -2 266.431 11.2925   2
   2  -3   2 274.784 14.1280   1
   2  -3   2 255.728 10.2712   3
   2  -3   2 269.858 11.0963   2
  -2  -3  -2 275.015 11.2891   3
  -2  -3  -2 272.222 13.1648   1
   2   3   2 262.537 11.1535   1
  -2   3  -2 263.716 13.0088   1
  -2   3  -2 268.210 11.3034   2
  -2   3  -2 267.441 12.9628   1
  -3  -3  -2 61.0659 4.92613   3
   3  -3   2 61.6253 6.83084   1
  -3  -3  -2 74.7623 5.04779   2
   3  -3   2 58.2554 3.25872   3
  -3  -3  -2 63.4987 6.73474   1
   3  -3   2 68.6587 4.64832   2
   3   3   2 62.9503 5.24935   1
  -3   3  -2 68.0227 6.42219   1
  -3   3  -2 63.6376 4.93501   2
  -3   3  -2 67.1261 7.05701   1
   3   3   2 64.6909 5.22924   3
  -4  -3  -2 33.9384 3.73395   3
   4  -3   2 36.7163 2.29042   3
   4  -3   2 40.6533 3.83687   2
   4  -3   2 34.1519 5.52880   1
  -4  -3  -2 38.6445 5.74138   1
  -4  -3  -2 30.5669 3.27587   2
   4   3   2 38.3954 4.75209   3
  -4   3  -2 39.9154 5.51024   1
  -4   3  -2 35.7122 3.69328   2
   4   3   2 37.0347 5.07859   1
   5  -3   2 47.0449 2.51205   3
  -5  -3  -2 48.9488 4.84901   3
  -5  -3  -2 47.9084 4.81864   2
   5  -3   2 46.3618 2.32991   3
  -5  -3  -2 45.7451 6.52151   1
   5  -3   2 43.3313 4.05213   2
  -5   3  -2 47.7695 4.87229   2
   5   3   2 47.0324 5.11502   3
   5   3   2 52.1252 5.94502   1
  -5   3  -2 56.2129 6.16754   1
  -6  -3  -2 68.3214 5.87979   3
  -6  -3  -2 65.2501 8.39362   1
  -6  -3  -2 76.1966 5.58907   2
   6  -3   2 61.1337 4.56881   2
   6   3   2 70.9798 7.32952   1
  -6   3  -2 72.3823 7.00110   1
  -6   3  -2 85.3806 7.30198   2
  -7  -3  -2 22.2265 6.03175   1
  -7  -3  -2 32.0597 3.79552   2
   7  -3   2 29.2144 2.97650   2
  -7  -3  -2 25.7873 3.86393   3
  -7   3  -2 22.9632 4.84675   1
   7   3   2 31.1784 5.57682   1
   7   3   2 23.5324 3.87285   3
  -7   3  -2 24.1563 4.64840   2
  -8  -3  -2 13.0428 5.47834   1
  -8  -3  -2 5.24559 3.27492   3
   8  -3   2 8.06742 2.13504   2
  -8  -3  -2 9.09758 3.28724   2
   8   3   2 10.7251 4.84893   1
  -8   3  -2 4.96537 5.59486   1
  -8   3  -2 8.14034 4.28780   1
   8   3   2 6.29236 3.76732   3
  -9  -3  -2 142.135 12.2545   1
   9  -3   2 119.847 6.31849   2
  -9  -3  -2 129.403 7.62643   2
   9   3   2 131.157 8.11566   3
  -9   3  -2 125.292 9.87378   1
  -9   3  -2 143.489 13.4885   1
   9   3   2 113.333 11.0491   1
  10  -3   2 1.01971 1.99541   2
 -10  -3  -2 -6.7064 7.08679   1
 -10  -3  -2 1.53106 2.79965   2
  10   3   2 11.8556 9.79422   1
 -10   3  -2 1.53758 5.51238   1
  10   3   2 0.39425 3.36172   3
 -10   3  -2 4.59862 4.27673   1
  11  -3   2 43.5602 4.00959   2
 -11  -3  -2 58.1364 6.03462   2
 -11  -3  -2 45.2745 9.73327   1
  11   3   2 70.1927 9.58371   1
 -11   3  -2 46.0843 8.35051   1
 -11   3  -2 60.8726 8.34670   1
  11   3   2 55.3699 6.63599   3
  12  -3   2 166.708 7.67546   2
 -12  -3  -2 205.262 17.1631   1
 -12   3  -2 135.613 9.60528   2
  12   3   2 163.362 13.5778   1
 -12   3  -2 171.700 14.3354   1
 -12   3  -2 159.186 12.3109   1
  12   3   2 216.102 10.6580   3
 -13  -3  -2 -6.5062 5.91426   1
  13  -3   2 -0.4993 2.22508   2
 -13  -3  -2 1.65079 3.26372   2
 -13  -3  -2 3.15367 3.12870   2
 -13   3  -2 2.11592 4.92299   1
 -13   3  -2 -1.8772 2.36742   2
 -13   3  -2 2.02508 5.42275   1
  13   3   2 2.71810 5.53361   1
  13   3   2 2.65442 4.03196   3
 -14  -3  -2 1.43637 3.49183   2
 -14  -3  -2 7.25441 3.25123   2
 -14  -3  -2 5.99817 7.34149   1
  14   3   2 2.07190 6.15486   1
 -14   3  -2 5.15474 2.29842   2
 -14   3  -2 1.91374 5.10249   1
 -14   3  -2 6.89978 5.98493   1
  14   3   2 10.7509 4.41287   3
 -15  -3  -2 29.8743 4.03705   2
 -15  -3  -2 19.6258 9.12894   1
  15  -3   2 34.4732 3.39105   2
  15  -3   2 36.1693 2.63041   3
 -15   3  -2 37.4987 3.86323   2
 -15   3  -2 48.9956 8.00679   1
  15   3   2 35.6644 5.47953   3
 -15   3  -2 36.2223 7.75544   1
  15   3   2 44.8775 9.14849   1
  16  -3   2 55.6967 3.13456   3
  16  -3   2 52.6540 3.59723   2
 -16  -3  -2 64.3709 12.4887   1
 -16  -3  -2 55.6786 6.41662   2
  16   3   2 67.7945 10.4608   1
  16   3   2 55.5050 6.54232   3
 -16   3  -2 59.6753 8.90396   1
 -16   3  -2 49.2116 9.02709   1
 -16   3  -2 59.1096 4.18221   2
  17  -3   2 8.39985 1.59070   3
 -17  -3  -2 8.68806 3.75864   2
  17  -3   2 2.09597 5.59654   1
 -17  -3  -2 3.57590 8.14488   1
  17  -3   2 6.58452 1.57192   2
  17   3   2 7.40299 6.17270   1
 -17   3  -2 6.14827 1.97077   2
 -17   3  -2 5.72732 6.78052   1
 -17   3  -2 4.75267 5.89665   1
  17   3   2 10.9991 5.35970   3
  18  -3   2 -0.1208 5.87718   1
  18  -3   2 1.43092 1.45842   3
 -18  -3  -2 -7.1735 7.86438   1
 -18  -3  -2 -0.0586 3.50422   2
 -18   3  -2 -4.7787 7.20651   1
  18   3   2 5.03554 4.74478   3
 -18   3  -2 0.71413 5.76276   1
 -19  -3  -2 29.0993 4.40983   2
  19  -3   2 21.4081 2.61935   3
 -19  -3  -2 12.8268 10.7286   1
  19   3   2 21.7630 8.35046   3
  19   3   2 18.3790 9.23621   1
 -19   3  -2 25.4980 9.16526   1
 -20  -3  -2 53.0188 15.5517   1
 -20  -3  -2 36.3902 5.22286   2
  20  -3   2 31.6426 2.80694   3
  20   3   2 35.3995 7.24173   3
 -20   3  -2 14.1403 10.2589   1
 -21  -3  -2 25.5487 13.0943   1
 -21  -3  -2 2.63200 3.66958   2
 -21   3  -2 -1.0642 12.2374   1
  21   3   2 0.22337 4.83338   3
 -22  -3  -2 0.61496 3.60267   2
  22   3   2 2.61873 5.57789   3
 -21  -4   2 6.26229 3.98992   2
  21   4  -2 10.0360 6.91917   3
 -20  -4   2 4.76905 4.21636   2
  20   4  -2 13.2528 6.22551   3
  19  -4  -2 6.91017 7.40934   1
  19   4  -2 1.36260 6.28302   3
  18  -4  -2 0.03921 6.49045   1
 -18  -4   2 -6.1059 12.2009   1
  18   4  -2 -0.9599 5.07090   3
  17  -4  -2 12.6339 6.75815   1
  17  -4  -2 5.65828 3.11692   3
  17   4  -2 10.2526 7.68039   1
  16  -4  -2 45.0724 4.28533   3
  16  -4  -2 45.3309 8.17863   1
 -16  -4   2 51.3197 13.5901   1
  16   4  -2 31.9283 9.50351   1
  16   4  -2 51.9967 7.70213   3
  15  -4  -2 14.5200 1.74443   2
 -15  -4   2 21.1335 11.3499   1
  15  -4  -2 14.1050 3.06209   3
  15   4  -2 7.64161 8.67708   1
  15   4  -2 14.6277 5.42620   3
  14  -4  -2 1.72214 1.66229   2
  14  -4  -2 -1.3466 2.46001   3
 -14  -4   2 12.9335 9.55713   1
  14   4  -2 3.61132 6.37956   1
  14   4  -2 -1.5654 4.52411   3
  13  -4  -2 -1.1640 2.56098   3
 -13  -4   2 9.12593 8.91981   1
  13   4  -2 7.67961 6.44145   1
  13   4  -2 0.61100 4.34297   3
 -12  -4   2 35.9986 9.77687   1
  12  -4  -2 33.0485 2.98710   2
  12  -4  -2 28.8649 3.55694   3
  12   4  -2 32.7942 5.35275   3
  12   4  -2 19.6547 7.49911   1
 -11  -4   2 197.378 18.1050   1
  11  -4  -2 174.422 8.51011   3
  11  -4  -2 178.761 8.16282   2
  11   4  -2 198.337 11.2692   3
  11   4  -2 176.574 14.7130   1
  10  -4  -2 31.3266 3.47287   3
 -10  -4   2 36.5405 9.11619   1
  10  -4  -2 31.7554 3.07401   2
  10  -4  -2 30.7995 3.39129   3
  10   4  -2 26.0923 7.39587   1
  10   4  -2 21.9271 5.10654   3
  -9  -4   2 68.2791 6.91793   2
   9  -4  -2 78.6313 5.24278   2
   9  -4  -2 75.8320 5.40096   3
   9  -4  -2 83.2944 5.28103   3
  -9  -4   2 95.1420 12.9056   1
   9   4  -2 110.133 7.85853   3
   9   4  -2 75.1547 10.4938   1
   8  -4  -2 25.8393 3.10118   2
  -8  -4   2 30.6281 8.39380   1
  -8  -4   2 21.9332 3.72281   2
   8  -4  -2 26.9444 3.24177   3
   8  -4  -2 25.1210 3.43984   3
   8   4  -2 25.6321 6.81493   1
   8   4  -2 23.4411 4.34959   3
  -7  -4   2 26.9703 8.18478   1
   7  -4  -2 35.5248 4.16520   3
  -7  -4   2 41.1696 4.64059   2
   7  -4  -2 36.3680 4.41910   3
   7  -4  -2 39.5858 4.30032   2
   7   4  -2 33.6719 4.70622   3
   7   4  -2 41.8361 7.31600   1
   6  -4  -2 1.27966 2.14555   2
  -6  -4   2 1.99479 3.46469   3
   6  -4  -2 3.14816 2.40733   3
  -6  -4   2 4.04000 6.05693   1
  -6  -4   2 1.43325 2.99832   2
   6   4  -2 4.26601 3.41720   2
   6   4  -2 3.43468 4.61960   1
   5  -4  -2 211.671 9.48439   3
   5  -4  -2 207.372 9.67556   2
  -5  -4   2 217.153 11.1686   3
  -5  -4   2 213.134 15.2925   1
   5   4  -2 233.491 11.1610   3
   5   4  -2 200.671 13.3063   1
   5   4  -2 210.664 10.4049   2
   4  -4  -2 4.94962 2.56992   2
  -4  -4   2 7.89602 3.50739   3
  -4  -4   2 -4.5767 5.16259   1
   4  -4  -2 7.43431 2.59552   3
  -4  -4   2 2.54589 3.01782   2
   4   4  -2 8.32641 5.44176   1
   4   4  -2 0.50076 2.90751   3
   4   4  -2 8.27490 3.16941   2
   3  -4  -2 273.504 12.0622   1
   3  -4  -2 276.618 11.7391   3
   3  -4  -2 279.188 12.0396   2
  -3  -4   2 273.574 12.3726   2
  -3  -4   2 264.138 18.7719   1
  -3  -4   2 284.938 12.0732   3
   3   4  -2 287.338 12.1997   3
   3   4  -2 260.167 19.6889   1
   3   4  -2 286.944 12.6513   2
   2  -4  -2 2.19559 2.63487   1
   2  -4  -2 -3.3765 2.17196   3
  -2  -4   2 2.45381 2.65300   3
  -2  -4   2 -6.2547 8.13389   1
   2  -4  -2 0.11293 2.24614   2
  -2  -4   2 -1.3007 2.53192   2
   2   4  -2 3.07034 3.64027   1
   2   4  -2 3.45623 2.64571   3
   2   4  -2 0.42451 3.24347   2
   1  -4  -2 17.0883 3.73957   1
  -1  -4   2 9.39550 2.83649   2
  -1  -4   2 17.5066 3.01670   3
   1  -4  -2 17.0957 3.09466   3
   1  -4  -2 14.4305 3.36735   2
   1   4  -2 13.5385 2.87721   3
   1   4  -2 11.0572 4.12137   1
   1   4  -2 15.5693 3.65240   2
   0  -4  -2 141.179 7.66492   3
   0  -4   2 145.225 7.96285   2
   0  -4  -2 139.184 7.92265   2
   0  -4   2 138.657 7.07322   3
   0  -4  -2 154.203 9.44651   1
   0   4  -2 150.454 8.31743   2
   0   4  -2 152.230 9.51685   1
  -1  -4  -2 716.087 28.1702   3
   1  -4   2 716.816 27.3807   3
  -1  -4  -2 769.100 32.0221   1
  -1  -4  -2 731.739 28.3068   2
   1  -4   2 749.656 28.2235   2
  -1   4  -2 747.482 29.6460   1
  -1   4  -2 738.912 29.7267   1
  -1   4  -2 732.037 28.3098   2
   2  -4   2 93.2512 11.2777   1
   2  -4   2 75.3623 4.58479   3
  -2  -4  -2 71.6114 11.4728   1
  -2  -4  -2 61.0692 7.01661   3
  -2  -4  -2 73.2334 6.38086   2
   2  -4   2 76.7229 5.89533   2
  -2   4  -2 70.4752 6.59652   1
  -2   4  -2 76.5467 6.24119   2
  -2   4  -2 77.0816 6.63717   1
   3  -4   2 47.7217 3.67533   3
  -3  -4  -2 52.4257 7.02889   1
  -3  -4  -2 57.2533 5.76377   3
  -3  -4  -2 57.3989 5.94350   2
   3  -4   2 62.6212 8.20927   1
   3  -4   2 54.3292 5.27544   2
  -3   4  -2 50.7243 5.70996   2
  -3   4  -2 59.6535 5.71413   1
  -3   4  -2 52.0492 5.65674   1
   4  -4   2 120.583 6.80596   2
  -4  -4  -2 104.950 7.28009   3
  -4  -4  -2 114.137 10.2760   1
   4  -4   2 108.197 5.12892   3
   4  -4   2 101.105 9.68801   1
  -4   4  -2 114.252 7.45680   1
  -4   4  -2 109.201 7.03835   2
  -4   4  -2 114.227 7.60174   1
   4   4   2 113.923 7.11158   1
   5  -4   2 14.5757 2.79515   2
  -5  -4  -2 20.7970 5.71734   1
   5  -4   2 19.2601 1.90302   3
  -5  -4  -2 18.6528 3.65487   2
   5   4   2 11.9936 4.33742   3
   5   4   2 18.4637 3.96416   1
  -5   4  -2 17.9309 3.66901   1
  -5   4  -2 19.4569 3.64366   2
   6  -4   2 2.75912 2.43998   2
  -6  -4  -2 -2.1184 4.81354   1
  -6  -4  -2 -0.6736 3.13663   2
   6  -4   2 0.12078 1.06404   3
   6   4   2 2.86451 3.68206   3
  -6   4  -2 2.10251 3.03055   1
  -6   4  -2 1.75799 3.06184   1
   6   4   2 -2.3989 3.34659   1
  -6   4  -2 1.60249 2.81942   2
  -7  -4  -2 5.01507 5.80898   1
  -7  -4  -2 -4.5609 2.89571   2
   7  -4   2 2.12537 2.51816   2
  -7   4  -2 2.96582 3.39001   1
   7   4   2 0.98765 3.74274   1
  -7   4  -2 2.04982 2.80810   2
   7   4   2 3.93244 4.32633   3
  -7   4  -2 -0.1331 3.21978   1
  -8  -4  -2 287.577 16.4054   2
   8  -4   2 364.243 14.4040   2
  -8  -4  -2 354.749 20.8448   1
   8   4   2 332.826 18.1143   1
  -8   4  -2 346.554 16.1963   1
   8   4   2 362.522 16.0741   3
  -8   4  -2 359.919 14.6172   2
  -8   4  -2 354.223 16.2416   1
  -9  -4  -2 385.059 22.2881   1
   9  -4   2 355.910 14.8373   2
  -9   4  -2 364.746 17.1389   1
  -9   4  -2 353.595 17.1472   1
  -9   4  -2 364.886 15.1353   2
   9   4   2 381.769 16.8716   3
   9   4   2 346.214 19.3609   1
 -10  -4  -2 81.9844 11.7696   1
  10  -4   2 67.1153 5.47828   2
 -10   4  -2 78.3178 6.01101   2
  10   4   2 78.6219 8.08595   3
  10   4   2 71.1884 9.75775   1
 -10   4  -2 78.0567 7.68082   1
 -10   4  -2 73.7582 7.79619   1
  11  -4   2 -0.7348 2.26404   2
 -11  -4  -2 5.19045 7.46293   1
 -11   4  -2 4.66407 4.02436   1
 -11   4  -2 2.75910 2.87137   2
  11   4   2 0.68713 5.12212   1
  11   4   2 5.18272 4.50985   3
 -11   4  -2 9.73942 4.38632   1
 -12  -4  -2 106.417 14.2097   1
  12  -4   2 95.8098 5.89831   2
  12   4   2 84.5694 11.2527   1
  12   4   2 106.307 9.04723   3
 -12   4  -2 99.6968 9.37052   1
 -12   4  -2 92.8650 6.40142   2
 -12   4  -2 104.425 9.07152   1
  13  -4   2 24.7388 3.03300   2
 -13  -4  -2 20.5416 9.46488   1
 -13   4  -2 16.3070 5.28715   1
 -13   4  -2 23.9794 3.25975   2
  13   4   2 11.5081 6.33057   1
  13   4   2 28.0104 6.26887   3
 -13   4  -2 25.9209 6.09616   1
 -14  -4  -2 8.05936 3.88401   2
 -14  -4  -2 6.63847 7.94739   1
  14  -4   2 7.33679 2.34025   2
 -14   4  -2 9.31914 5.47174   1
 -14   4  -2 4.76196 2.68305   2
  14   4   2 6.50335 4.77616   3
 -15  -4  -2 1.57627 8.40668   2
  15  -4   2 10.4863 2.26796   2
  15   4   2 9.97016 4.87905   3
  15   4   2 5.65449 6.67429   1
 -15   4  -2 10.7465 2.72457   2
 -15   4  -2 19.4531 6.03156   1
 -15   4  -2 6.56503 4.88966   1
 -16  -4  -2 -1.5213 3.69557   2
  16  -4   2 2.82793 1.85920   2
 -16  -4  -2 11.0298 9.25954   1
  16   4   2 3.84968 7.76787   1
 -16   4  -2 -7.5859 8.63450   1
 -16   4  -2 1.25005 2.46404   2
  16   4   2 -4.3672 7.98275   3
 -17  -4  -2 9.50191 4.21139   2
 -17  -4  -2 14.7369 13.8564   1
  17  -4   2 12.7470 2.09467   2
  17   4   2 19.3111 5.93102   3
 -18  -4  -2 11.1603 4.69536   2
  18   4   2 18.7760 6.90199   3
 -18   4  -2 10.0231 8.45131   1
 -19  -4  -2 6.50045 4.70327   2
 -19   4  -2 12.4662 9.40450   1
  19   4   2 3.87679 5.83775   3
 -20  -4  -2 1.76255 4.44640   2
  20   4   2 -0.9768 5.43174   3
 -20   4  -2 1.32014 11.4524   1
  18   5  -2 5.48959 5.77247   3
  17   5  -2 38.2912 6.63279   3
  16  -5  -2 -0.6971 1.95159   3
  16   5  -2 -1.3266 4.97413   3
  15  -5  -2 20.7806 2.76969   3
  15   5  -2 25.1366 5.84676   3
  14  -5  -2 -0.9167 2.18211   3
  14  -5  -2 5.09550 1.92476   2
  14   5  -2 0.58226 6.90341   3
  13  -5  -2 4.69188 2.07997   3
 -13  -5   2 -21.000 14.8854   1
  13  -5  -2 2.93530 2.44014   3
  13  -5  -2 2.51343 2.10992   2
  13   5  -2 6.29813 4.80664   3
  12  -5  -2 34.4142 3.63041   3
  12  -5  -2 25.5390 3.23572   2
 -12  -5   2 38.4097 11.4559   1
  12  -5  -2 36.8582 4.14749   3
  12   5  -2 38.6487 8.56468   1
  12   5  -2 48.9554 6.85490   3
 -11  -5   2 2.41055 8.35314   1
  11  -5  -2 1.35841 2.50310   3
  11  -5  -2 0.49019 2.41995   2
  11  -5  -2 0.96755 2.15970   3
  11   5  -2 1.41944 5.69858   1
  11   5  -2 1.46818 4.45836   3
  10  -5  -2 78.8482 5.40184   3
  10  -5  -2 82.0944 5.18437   3
  10   5  -2 90.4348 8.55762   3
  10   5  -2 62.4690 10.8283   1
   9  -5  -2 -0.1662 2.23925   3
   9  -5  -2 1.83606 2.31858   2
  -9  -5   2 1.78015 6.88043   1
   9  -5  -2 1.34579 2.54788   3
   9   5  -2 -0.6398 3.89207   3
   9   5  -2 -4.7370 5.76667   1
  -8  -5   2 67.4246 11.4444   1
   8  -5  -2 57.9147 5.30013   2
   8  -5  -2 63.1637 5.30082   3
   8  -5  -2 66.7259 4.99388   3
   8   5  -2 70.4409 7.60891   3
   8   5  -2 58.6827 8.40495   1
   7  -5  -2 3.87802 2.53103   2
  -7  -5   2 13.9607 7.71919   1
   7  -5  -2 6.48722 2.67572   3
   7  -5  -2 4.15674 2.89568   3
   7   5  -2 -2.4491 3.59169   3
   7   5  -2 0.04625 4.68203   1
   6  -5  -2 69.5355 5.17389   3
  -6  -5   2 64.0711 10.9391   1
   6  -5  -2 57.7025 5.44445   2
   6   5  -2 64.9827 7.12322   3
   6   5  -2 56.2243 7.59367   1
  -5  -5   2 50.7598 9.39309   1
   5  -5  -2 43.9304 4.35939   2
   5   5  -2 60.4185 6.64882   3
   5   5  -2 48.1821 6.67373   1
  -4  -5   2 64.5185 9.86765   1
   4  -5  -2 46.0653 6.13758   2
   4  -5  -2 50.2779 4.70153   3
   4   5  -2 46.6933 5.18579   3
   4   5  -2 36.6229 5.75733   1
  -3  -5   2 1.40634 3.49647   3
  -3  -5   2 3.32589 5.79609   1
   3  -5  -2 1.21205 2.64248   3
   3   5  -2 -0.2052 3.30036   3
   3   5  -2 0.23629 3.67909   2
   3   5  -2 0.94672 3.53499   1
  -2  -5   2 192.294 14.4933   1
   2  -5  -2 170.188 9.43361   1
  -2  -5   2 157.635 8.79788   3
   2  -5  -2 155.189 8.71216   3
   2   5  -2 176.259 9.97249   2
   2   5  -2 176.721 10.0271   1
  -1  -5   2 127.208 7.53737   3
  -1  -5   2 140.442 12.4443   1
   1  -5  -2 117.720 8.53623   1
   1   5  -2 116.358 7.94760   1
   1   5  -2 121.172 8.45828   2
   1   5  -2 120.205 7.57529   1
   0  -5  -2 19.0545 4.66362   1
   0  -5   2 12.9723 6.02051   1
   0  -5   2 14.5388 3.27457   3
   0   5  -2 14.6618 4.38161   2
   0   5  -2 13.1325 2.79170   1
   1  -5   2 118.522 6.72745   3
  -1  -5  -2 125.663 9.91931   1
   1  -5   2 112.362 11.2882   1
  -1   5  -2 123.735 8.42932   2
  -2  -5  -2 16.4194 5.24894   1
   2  -5   2 6.75968 5.48895   1
   2  -5   2 12.3807 2.83475   3
  -2   5  -2 3.47310 3.82801   2
   3  -5   2 36.1400 6.96174   1
   3  -5   2 32.6807 3.28859   3
  -3  -5  -2 28.0486 6.53362   1
  -3   5  -2 26.9963 4.19038   2
   4  -5   2 188.579 9.04544   3
  -4  -5  -2 208.306 14.3549   1
   4  -5   2 207.264 14.0333   1
  -4   5  -2 208.908 10.9755   2
  -5  -5  -2 3.33485 5.62653   1
   5  -5   2 6.78284 1.91729   3
  -5   5  -2 4.86156 4.07644   2
  -6  -5  -2 226.403 16.0935   1
  -6   5  -2 210.671 11.1743   2
  -7  -5  -2 90.7487 12.5105   1
  -7   5  -2 87.3919 7.35463   2
   7   5   2 80.9170 7.61908   1
  -8  -5  -2 17.6782 11.4933   1
   8   5   2 24.9103 5.14488   1
  -8   5  -2 23.9133 4.20410   2
   8   5   2 30.1813 5.81834   3
  -9  -5  -2 5.26464 7.95599   1
   9   5   2 3.73620 5.28766   3
  -9   5  -2 -1.3269 2.99503   2
 -10  -5  -2 1.82883 7.33275   1
  10   5   2 9.69081 5.02466   1
 -10   5  -2 -0.2352 3.31445   2
  10   5   2 1.55293 5.19061   3
 -11  -5  -2 12.1263 9.29418   1
  11   5   2 9.28329 5.08333   3
  11   5   2 10.9453 5.70182   1
 -11   5  -2 13.0996 3.57237   2
  12   5   2 12.0822 6.04850   3
 -12   5  -2 8.87539 3.36650   2
  13   5   2 0.56424 5.30821   3
 -14  -5  -2 5.04570 4.99721   2
  14  -5   2 5.26770 3.17111   2
  14   5   2 5.73210 5.41400   3
 -15  -5  -2 8.13377 4.81202   2
  15   5   2 15.2080 6.51621   3
 -16  -5  -2 31.2719 5.80277   2
  16   5   2 37.7348 7.59594   3
 -17  -5  -2 1.11973 4.44314   2
  17   5   2 -8.2199 5.75879   3
  13   6  -2 4.73552 5.41285   3
  12  -6  -2 -1.6889 2.31321   3
  12   6  -2 0.71525 5.32365   3
  11  -6  -2 0.80034 2.21056   3
  11   6  -2 1.50943 4.80344   3
  10  -6  -2 2.41658 4.08770   3
   9   6  -2 -1.2788 4.54187   3
   8   6  -2 -5.5657 4.24345   3
   7  -6  -2 18.7355 3.51063   3
   7   6  -2 12.2656 4.44342   3
   6  -6  -2 -1.1085 2.99345   3
   6   6  -2 -3.3042 3.58878   1
   5   6  -2 -0.2812 2.95612   1
   1  -6  -2 10.0559 3.33098   1
   0  -6  -2 8.28847 3.85103   1
   1  -6   2 11.2534 3.05984   3
  -1  -6  -2 4.50094 4.30332   1
   2  -6   2 -3.8678 2.27364   3
  -2  -6  -2 0.00920 6.29583   1
   3  -6   2 37.6845 3.99302   3
   4  -6   2 7.83456 2.18450   3
   5  -6   2 156.013 6.77731   3
   5  -6   2 153.371 6.48202   3
  25   0  -3 -5.1106 4.80007   3
  24   0  -3 -14.572 8.63309   1
  24   0  -3 1.37710 4.58424   3
 -24   0   3 -8.4205 14.2876   1
 -23   0   3 23.0692 13.2813   1
  23   0  -3 5.47558 8.82457   1
  23   0  -3 22.5846 6.24450   3
  22   0  -3 -4.7220 4.25307   3
 -22   0   3 4.28492 9.04765   1
  22   0  -3 -0.7404 6.82192   1
  21   0  -3 0.83086 5.95518   1
  21   0  -3 -0.0143 4.76999   3
 -21   0   3 -7.5634 9.97546   1
  20   0  -3 8.44938 6.27631   1
  20   0  -3 -1.1441 3.94403   3
 -20   0   3 1.61118 12.3318   1
  19   0  -3 5.10306 5.61506   1
  19   0  -3 5.42151 4.67533   3
 -19   0   3 11.9482 8.63948   1
 -18   0   3 5.93968 7.86768   1
  18   0  -3 3.50163 3.86298   3
  18   0  -3 2.12474 5.42705   1
  17   0  -3 -1.8221 4.13278   3
  17   0  -3 -1.2282 4.87137   1
 -17   0   3 6.84594 7.10016   1
 -16   0   3 -1.4569 6.98134   1
  16   0  -3 8.42982 5.71233   1
  16   0  -3 9.08044 4.00612   3
  15   0  -3 1.16633 3.46407   3
 -15   0   3 6.49709 6.38413   1
 -15   0   3 3.62768 4.97669   3
  15   0  -3 -0.2971 10.2734   1
 -14   0   3 -3.0706 2.93580   3
  14   0  -3 2.73038 3.65898   3
 -14   0   3 -0.1406 5.15843   1
  14   0  -3 0.11919 4.57595   1
 -13   0   3 2.03407 2.70781   3
 -13   0   3 -4.5338 4.61575   1
  13   0  -3 -0.7772 3.44863   3
  12   0  -3 3.39382 4.39249   1
  12   0  -3 0.59657 2.80566   3
 -12   0   3 -1.2202 2.66451   3
 -12   0   3 -0.6274 4.52030   1
  11   0  -3 1.46489 2.64540   3
  11   0  -3 -2.4826 3.53294   1
 -11   0   3 0.39989 0.69205   2
 -11   0   3 -0.9583 4.63234   1
 -11   0   3 1.95040 2.67842   3
 -10   0   3 0.68963 4.56989   1
  10   0  -3 0.23440 2.59517   3
 -10   0   3 1.05842 2.33054   3
 -10   0   3 -0.0569 0.73937   2
  10   0  -3 -0.9051 4.05844   1
  -9   0   3 3.11539 0.85888   2
  -9   0   3 3.06349 2.40189   3
  -9   0   3 -2.7723 4.44531   1
   9   0  -3 0.37807 3.69644   1
   9   0  -3 0.76336 2.81984   3
   8   0  -3 -3.8190 4.07929   1
  -8   0   3 0.65251 0.87564   2
   8   0  -3 10.2922 2.64801   3
   8   0  -3 2.26569 0.84845   2
  -8   0   3 1.52259 2.46811   3
  -8   0   3 3.87262 4.79057   1
  -7   0   3 3.76240 0.94951   2
  -7   0   3 4.41290 3.96902   1
   7   0  -3 6.71886 4.28839   1
   7   0  -3 12.7390 2.62173   3
   6   0  -3 0.63462 3.46191   1
   6   0  -3 -0.3573 0.86981   2
  -6   0   3 0.36257 3.26263   1
  -6   0   3 -0.5579 0.82700   2
   6   0  -3 -0.3684 2.03565   3
  -6   0   3 -1.5935 2.09077   3
   5   0  -3 -0.2877 0.80094   2
   5   0  -3 -1.5561 1.77702   3
   5   0  -3 1.96089 3.11899   1
  -5   0   3 -1.2637 0.77781   2
  -5   0   3 0.93125 3.24114   1
  -5   0   3 -0.8824 1.65008   3
   4   0  -3 -2.5971 2.43504   1
  -4   0   3 -0.0043 0.78228   2
  -4   0   3 -1.9971 2.87806   1
   4   0  -3 -0.6882 0.79778   2
   4   0  -3 -1.2251 1.58964   3
  -4   0   3 1.65149 1.64588   3
  -3   0   3 2.30197 1.67451   3
   3   0  -3 2.31714 2.58025   1
   3   0  -3 1.26385 0.92166   2
  -3   0   3 4.66170 4.72243   1
  -3   0   3 2.74491 0.91027   2
   3   0  -3 1.97779 1.69362   3
   2   0  -3 0.81223 1.45704   3
   2   0  -3 -0.7205 2.33761   1
   2   0  -3 0.57757 1.04675   2
   1   0  -3 1.08167 1.38159   3
   1   0  -3 0.56461 1.02966   2
  -1   0   3 0.19231 1.03825   2
   1   0  -3 1.34472 2.41334   1
  -1   0   3 -1.2944 2.36248   1
   0   0  -3 1.14397 1.19356   2
   0   0   3 0.66657 2.58725   1
   0   0  -3 -1.3971 2.31824   1
   0   0   3 -1.4438 1.11005   2
  -1   0  -3 -0.6486 1.20039   2
   1   0   3 4.29486 1.23001   2
   1   0   3 0.31178 2.60887   1
  -1   0  -3 3.23597 2.58344   1
   2   0   3 2.64675 1.30876   2
  -2   0  -3 -3.0530 2.44150   1
  -2   0  -3 4.45199 2.56208   1
  -2   0  -3 3.79405 1.14547   2
  -2   0  -3 1.41254 1.18658   3
   3   0   3 -0.3221 1.14996   2
  -3   0  -3 0.55546 2.76768   1
  -3   0  -3 -0.0359 1.09900   3
  -3   0  -3 -0.0598 1.24982   2
  -4   0  -3 0.79333 1.21207   3
  -4   0  -3 -0.3422 1.25059   2
   4   0   3 -1.1272 1.10907   2
  -4   0  -3 -0.3421 3.30111   1
   4   0   3 0.41581 3.11804   1
   4   0   3 -0.0146 1.31193   3
   5   0   3 0.45851 1.28243   2
   5   0   3 0.31796 1.63666   3
  -5   0  -3 -0.2106 1.51927   2
  -5   0  -3 0.52070 1.52872   3
   5   0   3 -1.0219 3.16014   1
  -5   0  -3 -0.4263 3.54552   1
  -6   0  -3 1.63040 1.68625   2
   6   0   3 2.65076 1.59297   2
   6   0   3 2.21316 1.66944   3
  -6   0  -3 4.37775 4.20495   1
  -6   0  -3 3.78528 1.74021   3
  -7   0  -3 -1.2643 1.53372   2
  -7   0  -3 2.22884 4.15282   1
   7   0   3 -0.4083 3.74907   1
  -7   0  -3 2.19282 1.89196   3
   7   0   3 -0.5358 1.90858   3
   7   0   3 -0.1721 1.35396   2
  -8   0  -3 -1.2448 4.08266   1
  -8   0  -3 -1.2085 1.57962   2
   8   0   3 -1.4329 1.73237   3
   8   0   3 -2.9485 4.19828   1
  -8   0  -3 -0.0248 2.17190   3
   8   0   3 -0.6556 1.35444   2
  -9   0  -3 7.03009 7.93941   1
   9   0   3 -0.3831 1.39522   2
   9   0   3 0.75666 3.92784   1
  -9   0  -3 1.78139 1.59234   2
  -9   0  -3 3.58252 2.05598   3
   9   0   3 6.14782 2.07740   3
 -10   0  -3 -1.1948 2.05440   3
  10   0   3 5.11540 4.47956   1
  10   0   3 0.00383 2.08186   3
 -10   0  -3 -2.5427 1.61975   2
 -10   0  -3 2.56856 4.96704   1
 -11   0  -3 27.5810 7.03639   1
 -11   0  -3 9.01428 3.00483   3
  11   0   3 13.5260 5.65511   1
  12   0   3 4.07802 5.38746   1
 -12   0  -3 7.09127 6.53804   1
 -12   0  -3 4.19850 3.00498   3
 -12   0  -3 2.31878 2.07725   2
  12   0   3 0.86090 3.07994   3
 -13   0  -3 3.19851 3.13848   3
 -13   0  -3 6.17304 2.31238   2
 -13   0  -3 2.17234 6.58746   1
  13   0   3 1.81403 5.75330   1
  13   0   3 6.12035 3.40382   3
  14   0   3 5.56217 5.87013   1
 -14   0  -3 4.34879 2.24098   2
  14   0   3 14.9960 3.49122   3
 -14   0  -3 10.2537 7.96309   1
 -14   0  -3 9.35576 3.41296   3
 -15   0  -3 1.79682 3.36465   3
  15   0   3 0.44328 2.97877   3
 -15   0  -3 -0.1224 6.75716   1
 -15   0  -3 -0.8560 1.94809   2
  15   0   3 0.47381 4.99995   1
  16   0   3 -4.3204 5.10619   1
 -16   0  -3 -1.8304 6.61806   1
  16   0   3 0.50665 3.40044   3
 -16   0  -3 -0.2630 3.10715   3
  17   0   3 -1.1982 5.26409   1
 -17   0  -3 -0.7691 7.03173   1
  17   0   3 -0.6082 3.05143   3
  18   0   3 1.24672 6.74754   1
 -18   0  -3 0.78674 2.21001   2
  18   0   3 -0.3883 3.17859   3
 -18   0  -3 3.25844 7.53744   1
 -19   0  -3 -0.8578 2.18896   2
  19   0   3 0.65752 6.82997   1
  19   0   3 0.34660 3.62569   3
 -19   0  -3 -4.9719 7.05842   1
 -19   0  -3 -1.0616 2.15048   2
 -20   0  -3 -0.3477 2.28414   2
 -20   0  -3 0.79065 2.21485   2
 -20   0  -3 6.24463 9.21407   1
  20   0   3 3.08158 6.90764   1
  20   0   3 8.36510 3.85491   3
 -21   0  -3 0.41995 2.14801   2
  21   0   3 -4.0055 7.19751   1
 -21   0  -3 -8.0510 8.83877   1
  21   0   3 0.36205 3.54940   3
  22   0   3 -3.7890 3.31440   3
 -22   0  -3 6.45711 11.0793   1
  22   0   3 0.06704 7.63490   1
  23   0   3 2.27956 3.62534   3
  23   0   3 8.05899 9.32409   1
 -23   0  -3 -4.4652 13.2063   1
 -23   0  -3 -0.2684 1.76504   2
  24   0   3 -9.0993 10.9746   1
  25  -1  -3 4.05812 4.23113   3
  25   1  -3 -16.970 10.4908   1
  25   1  -3 -5.5803 4.90399   3
  24  -1  -3 -1.1624 9.29282   1
  24  -1  -3 15.7695 6.07610   3
 -24  -1   3 13.8222 14.8973   1
  24   1  -3 14.7077 5.95583   3
 -24   1   3 -7.0731 15.8049   1
  24   1  -3 -3.1037 8.40442   1
 -23  -1   3 -3.3950 11.4162   1
  23  -1  -3 -2.5430 7.61841   1
  23  -1  -3 1.71775 4.78057   3
  23   1  -3 6.53187 8.79086   1
  23   1  -3 -1.2213 5.80709   3
  22  -1  -3 41.2547 10.0617   1
 -22  -1   3 41.6077 12.8249   1
  22  -1  -3 35.5666 5.87800   3
  22   1  -3 20.1367 9.05853   1
  22   1  -3 32.3311 6.34309   3
 -21  -1   3 43.7383 12.3072   1
  21  -1  -3 32.7160 5.18398   3
  21  -1  -3 25.1227 8.77284   1
  21   1  -3 25.0275 5.70194   3
  21   1  -3 18.8752 14.9825   1
 -20  -1   3 -0.1387 1.38785   2
 -20  -1   3 -0.6468 8.19818   1
  20  -1  -3 -0.4181 7.12854   1
  20  -1  -3 0.96805 3.61911   3
 -20  -1   3 1.65800 1.45221   2
  20   1  -3 1.71597 4.71893   3
  20   1  -3 -7.2935 5.85055   1
 -19  -1   3 3.15763 1.66059   2
 -19  -1   3 10.3128 9.44400   1
 -19  -1   3 9.54019 1.81334   2
  19  -1  -3 3.41261 3.87507   3
  19   1  -3 5.67208 6.59197   1
  19   1  -3 8.88375 5.17326   3
 -18  -1   3 2.47675 1.64099   2
  18  -1  -3 0.38635 3.66853   3
 -18  -1   3 1.22681 1.66150   2
 -18  -1   3 -3.0551 7.14327   1
  18  -1  -3 0.47784 4.96234   1
  18   1  -3 -0.1723 4.24593   3
  18   1  -3 15.1435 6.69147   1
  17  -1  -3 25.1278 4.70447   3
 -17  -1   3 26.3706 2.34517   2
 -17  -1   3 15.9451 8.69318   1
 -17  -1   3 19.7517 2.30303   2
  17  -1  -3 16.8443 6.58032   1
  17   1  -3 8.05727 4.44163   3
  17   1  -3 29.2553 8.01661   1
  16  -1  -3 27.5167 4.49167   3
 -16  -1   3 23.3749 2.42958   2
 -16  -1   3 0.63891 7.02640   1
 -16  -1   3 21.1737 2.22494   2
  16   1  -3 22.4715 7.63362   1
  16   1  -3 17.7529 4.48900   3
  15  -1  -3 12.0418 3.71461   3
 -15  -1   3 11.0508 2.05950   2
 -15  -1   3 16.6129 8.61820   1
  15  -1  -3 8.10994 5.35947   1
 -15   1   3 6.91127 4.41171   1
 -15   1   3 15.7495 3.51191   3
  15   1  -3 12.7822 4.39767   3
  15   1  -3 18.2776 6.96417   1
  14  -1  -3 239.382 14.1617   3
 -14  -1   3 194.620 17.3070   1
 -14  -1   3 212.418 8.60770   2
  14  -1  -3 215.080 15.0873   1
  14   1  -3 203.881 15.6945   1
 -14   1   3 202.885 10.9549   3
  14   1  -3 215.315 11.1126   3
 -14   1   3 167.460 13.4561   1
 -13  -1   3 357.485 13.1335   2
 -13  -1   3 346.449 14.7875   3
 -13  -1   3 363.583 21.9072   1
  13  -1  -3 325.529 18.9221   1
  13  -1  -3 363.023 14.5228   3
 -13   1   3 349.526 14.3048   3
  13   1  -3 329.163 19.8764   1
 -13   1   3 319.445 18.4116   1
  13   1  -3 284.434 16.7632   3
 -12  -1   3 109.643 5.57716   2
  12  -1  -3 125.774 7.12094   3
 -12  -1   3 118.377 12.0205   1
  12  -1  -3 120.681 10.0104   1
  12   1  -3 127.760 12.1372   1
 -12   1   3 124.665 6.77576   3
 -12   1   3 117.257 10.4032   1
 -11  -1   3 276.445 12.0745   3
  11  -1  -3 260.609 15.3955   1
 -11  -1   3 279.782 10.7499   2
 -11  -1   3 285.390 17.2183   1
  11  -1  -3 263.362 11.7588   3
  11   1  -3 260.449 16.8056   1
 -11   1   3 273.613 11.5686   3
  11   1  -3 281.404 12.1850   3
 -11   1   3 279.408 15.4618   1
 -10  -1   3 1474.55 58.8627   1
 -10  -1   3 1441.30 53.3213   3
  10  -1  -3 1504.07 53.1750   3
 -10  -1   3 1459.78 52.4920   2
  10  -1  -3 1481.62 57.0474   1
 -10   1   3 1381.95 56.6454   1
 -10   1   3 1437.05 53.0389   3
  10   1  -3 1502.06 53.4789   3
  10   1  -3 1413.69 58.1232   1
  -9  -1   3 893.822 31.7424   2
  -9  -1   3 785.544 40.7933   1
   9  -1  -3 906.569 35.7503   1
   9  -1  -3 888.723 32.3324   3
  -9  -1   3 870.724 32.5348   3
  -9   1   3 873.308 32.2261   3
   9   1  -3 888.844 31.7167   2
   9   1  -3 853.082 36.8873   1
   9   1  -3 870.938 32.5981   3
  -9   1   3 851.536 35.4201   1
  -8  -1   3 891.563 33.4404   2
  -8  -1   3 897.949 34.1074   3
   8  -1  -3 911.392 33.9398   3
  -8  -1   3 993.069 41.9788   1
   8  -1  -3 941.167 36.8677   1
  -8   1   3 936.356 36.6890   1
   8   1  -3 885.617 34.1282   3
  -8   1   3 919.649 33.8715   3
   8   1  -3 933.327 33.4769   2
  -7  -1   3 97.2101 5.78668   3
   7  -1  -3 96.8852 3.83726   2
  -7  -1   3 107.876 10.4445   1
   7  -1  -3 97.1379 3.84785   2
   7  -1  -3 95.2238 7.42232   1
   7  -1  -3 103.764 5.54117   3
  -7  -1   3 104.585 4.86108   2
   7   1  -3 98.4813 4.82973   2
   7   1  -3 104.330 9.88924   1
  -7   1   3 102.496 7.43786   1
  -7   1   3 105.890 5.49017   3
   7   1  -3 101.207 6.07464   3
  -6  -1   3 58.3959 3.61367   2
   6  -1  -3 55.7809 2.67388   2
   6  -1  -3 66.7622 4.25727   3
   6  -1  -3 66.2364 5.89855   1
  -6  -1   3 59.4416 7.68677   1
  -6   1   3 57.6950 5.75573   1
   6   1  -3 61.0878 3.64927   2
   6   1  -3 62.8079 8.54444   1
   6   1  -3 56.9978 4.77516   3
   5  -1  -3 1259.61 44.8112   2
   5  -1  -3 1277.53 45.4107   3
  -5  -1   3 1286.71 48.9513   1
  -5  -1   3 1183.09 45.1218   2
   5  -1  -3 1269.76 46.9921   1
   5   1  -3 1235.77 45.1766   2
   5   1  -3 1225.59 45.4701   3
  -5   1   3 1285.34 46.7161   1
  -4  -1   3 3447.68 124.557   1
   4  -1  -3 3485.57 122.557   1
  -4   1   3 3311.05 122.080   1
   4   1  -3 3324.22 125.158   1
   3  -1  -3 63.0721 2.97338   2
   3  -1  -3 60.5057 4.37540   1
  -3  -1   3 66.4492 6.44030   1
  -3  -1   3 65.2146 3.41778   2
  -3  -1   3 63.5326 3.63939   3
   3   1  -3 59.8346 3.71231   3
  -3   1   3 65.1643 3.96771   1
   3   1  -3 59.5285 3.46973   2
   3   1  -3 61.6865 6.11775   1
  -2  -1   3 6.55572 3.59529   1
  -2  -1   3 8.80664 1.49369   3
   2  -1  -3 7.61057 1.13946   2
  -2  -1   3 6.72359 1.34489   2
   2  -1  -3 1.23633 1.83614   1
   2   1  -3 5.98547 3.28291   1
   2   1  -3 9.54180 1.47359   2
   2   1  -3 10.1286 1.67077   3
  -1  -1   3 2689.93 99.8832   1
   1  -1  -3 2738.69 98.1397   1
   1   1  -3 2743.91 99.9114   1
   1  -1   3 490.278 18.1389   2
  -1  -1  -3 492.429 18.3392   3
  -1  -1  -3 497.433 18.1304   2
   1  -1   3 493.998 20.6136   1
  -1  -1  -3 464.698 22.5355   1
  -1   1  -3 509.844 17.7742   3
  -1   1  -3 485.364 18.1544   2
   2  -1   3 79.4816 3.98781   2
  -2  -1  -3 86.2187 5.89681   1
   2  -1   3 78.7363 6.46269   1
  -2  -1  -3 78.6901 4.29984   3
  -2   1  -3 78.5278 4.07738   2
  -2   1  -3 84.3607 6.54057   1
  -2   1  -3 92.0907 3.26518   3
  -3  -1  -3 376.975 16.3122   1
  -3  -1  -3 361.325 13.8614   2
  -3  -1  -3 365.528 14.1384   3
   3  -1   3 360.585 13.7764   2
   3   1   3 362.641 14.1247   3
  -3   1  -3 355.681 16.9033   1
  -3   1  -3 376.006 13.2549   3
  -3   1  -3 381.914 13.8503   2
  -3   1  -3 368.038 16.5840   1
   3   1   3 365.781 16.0601   1
  -4  -1  -3 822.380 29.6748   2
  -4  -1  -3 848.109 32.6713   1
  -4  -1  -3 721.116 31.2329   3
   4  -1   3 789.229 29.5245   2
   4   1   3 843.448 29.9736   3
  -4   1  -3 800.855 29.5675   2
   4   1   3 849.696 32.4088   1
  -4   1  -3 817.894 29.0894   3
  -4   1  -3 833.602 32.8303   1
  -4   1  -3 801.259 32.7783   1
   5  -1   3 29.5846 2.93150   2
  -5  -1  -3 29.7237 3.24204   2
  -5  -1  -3 27.4512 2.92622   3
  -5  -1  -3 28.2649 4.96374   1
  -5   1  -3 30.9623 4.95315   1
   5   1   3 33.3509 3.82223   3
  -5   1  -3 34.1828 5.51983   1
  -5   1  -3 30.8460 2.89750   2
  -5   1  -3 30.6519 2.00405   3
   5   1   3 33.6665 5.25095   1
   6  -1   3 2646.22 98.6145   1
  -6  -1  -3 2671.12 95.1263   3
  -6  -1  -3 2723.56 98.7478   1
   6   1   3 2595.14 98.2106   1
  -6   1  -3 2524.24 98.1112   1
  -6   1  -3 2705.70 98.6329   1
  -7  -1  -3 929.391 38.9779   1
  -7  -1  -3 953.721 34.7477   2
   7  -1   3 942.514 34.3258   3
   7  -1   3 959.778 34.5425   2
  -7  -1  -3 920.232 35.0736   3
   7  -1   3 923.089 38.8666   1
  -7   1  -3 972.441 34.5910   2
  -7   1  -3 937.536 34.3176   3
   7   1   3 966.013 35.1788   3
  -7   1  -3 971.171 39.0058   1
   7   1   3 988.003 38.9651   1
   8  -1   3 2402.03 87.6527   2
  -8  -1  -3 2432.02 87.8752   2
   8  -1   3 2425.06 92.4456   1
  -8  -1  -3 2443.38 88.2967   3
  -8  -1  -3 2534.32 92.9797   1
  -8   1  -3 2540.60 92.6505   1
   8   1   3 2378.20 88.3077   3
  -8   1  -3 2445.85 87.7079   2
   8   1   3 2434.39 92.4956   1
  -8   1  -3 2443.00 87.5628   3
  -9  -1  -3 981.232 35.4754   2
   9  -1   3 954.170 35.1955   3
   9  -1   3 952.754 40.4467   1
   9  -1   3 980.812 35.2182   2
  -9  -1  -3 943.695 35.9248   3
  -9  -1  -3 1007.35 41.1126   1
   9   1   3 968.521 36.0161   3
  -9   1  -3 965.673 35.1851   3
  -9   1  -3 960.263 40.4773   1
   9   1   3 1002.46 40.6741   1
  -9   1  -3 948.527 35.2345   2
  10  -1   3 502.062 18.8392   2
 -10  -1  -3 531.393 25.3890   1
 -10  -1  -3 502.523 19.2087   2
 -10  -1  -3 529.929 19.8843   3
  10  -1   3 496.653 18.9485   3
  10  -1   3 470.286 24.1152   1
  10   1   3 521.899 19.9307   3
 -10   1  -3 501.323 18.8982   2
  10   1   3 505.531 24.8119   1
 -10   1  -3 510.581 18.9582   3
 -10   1  -3 487.013 24.6221   1
 -11  -1  -3 0.93127 2.74934   2
  11  -1   3 -0.0897 1.65145   2
  11  -1   3 -2.6346 5.71540   1
 -11  -1  -3 18.0520 7.49884   1
 -11  -1  -3 3.96649 3.20969   3
  11  -1   3 4.13442 2.14725   3
  11   1   3 0.51583 4.75757   1
 -11   1  -3 1.64877 1.87206   2
 -11   1  -3 -3.2887 5.17301   1
 -11   1  -3 0.42380 2.15362   3
  11   1   3 4.77369 3.06477   3
 -12  -1  -3 3154.72 119.262   1
 -12  -1  -3 3058.92 111.532   2
  12  -1   3 3025.85 111.094   2
 -12  -1  -3 3147.16 112.811   3
  12  -1   3 3116.23 111.411   3
  12  -1   3 3046.01 121.561   1
 -12   1  -3 3117.02 111.155   2
  12   1   3 3137.22 118.485   1
 -12   1  -3 3119.16 118.212   1
 -12   1  -3 3112.50 111.370   3
  13  -1   3 -8.0089 5.78959   1
 -13  -1  -3 -4.2882 2.56583   2
 -13  -1  -3 7.84866 8.05799   1
 -13   1  -3 4.64891 2.05510   2
 -13   1  -3 5.92648 6.72463   1
  13   1   3 7.21192 5.73975   1
 -14  -1  -3 552.772 21.8201   2
  14  -1   3 541.866 20.5559   2
  14  -1   3 562.847 21.2406   3
  14  -1   3 542.751 29.1566   1
 -14  -1  -3 578.508 30.3452   1
 -14   1  -3 525.525 21.0994   3
 -14   1  -3 561.052 20.6804   2
 -14   1  -3 588.692 29.6475   1
  14   1   3 510.640 28.0632   1
  14   1   3 556.389 22.2563   3
 -15  -1  -3 14.4944 2.93442   2
  15  -1   3 17.1333 3.16388   3
  15  -1   3 17.5224 6.54892   1
 -15  -1  -3 12.1039 8.19851   1
 -15   1  -3 16.0452 2.36991   2
  15   1   3 12.5245 6.51599   1
 -15   1  -3 18.0309 3.09216   3
 -15   1  -3 10.1873 6.91345   1
  15   1   3 12.7247 3.72804   3
  16  -1   3 -1.0211 2.53024   3
 -16  -1  -3 3.90194 7.62666   1
 -16  -1  -3 1.11245 2.49163   2
  16  -1   3 -2.8362 4.85230   1
  16   1   3 1.43164 6.35956   1
 -16   1  -3 -0.3711 2.60751   3
  16   1   3 -2.3910 3.40430   3
 -16   1  -3 -0.4697 1.84729   2
 -16   1  -3 2.41752 6.95247   1
 -17  -1  -3 12.4473 8.63143   1
  17  -1   3 19.2571 7.57758   1
 -17  -1  -3 17.3997 2.95897   2
 -17  -1  -3 27.2626 3.46916   2
  17   1   3 33.8684 5.16828   3
 -17   1  -3 24.1777 2.50885   2
 -17   1  -3 23.2854 9.05239   1
  17   1   3 14.9894 7.16759   1
 -18  -1  -3 21.3005 3.35295   2
 -18  -1  -3 14.4898 2.97376   2
 -18  -1  -3 13.4419 9.03117   1
  18  -1   3 16.2462 7.27847   1
 -18   1  -3 22.0649 3.44027   3
  18   1   3 19.1057 4.39354   3
 -18   1  -3 21.3391 2.47388   2
  18   1   3 23.6833 8.43862   1
 -18   1  -3 16.1986 8.67308   1
  19  -1   3 75.0359 12.5982   1
 -19  -1  -3 102.718 6.55763   2
 -19  -1  -3 94.1077 14.8356   1
  19  -1   3 96.9181 6.96578   3
 -19  -1  -3 104.156 6.36317   2
  19   1   3 70.2766 12.2456   1
 -19   1  -3 106.987 5.33724   2
  19   1   3 121.442 8.59934   3
 -20  -1  -3 43.2374 4.17994   2
  20  -1   3 47.4837 5.45907   3
 -20  -1  -3 36.7157 3.86966   2
 -20  -1  -3 44.2835 15.0561   1
  20  -1   3 41.5720 10.2575   1
  20   1   3 34.7426 9.53759   1
 -20   1  -3 41.4738 3.50661   2
  20   1   3 45.7850 6.20608   3
 -20   1  -3 33.7990 12.9973   1
  21  -1   3 10.7633 3.49902   3
 -21  -1  -3 10.5377 11.7908   1
  21  -1   3 10.6825 8.24954   1
 -21  -1  -3 6.87352 2.98694   2
 -21  -1  -3 4.88665 2.71096   2
  21   1   3 4.84468 4.05810   3
 -21   1  -3 3.66665 10.8629   1
 -21   1  -3 8.23067 1.66284   2
 -21   1  -3 8.14736 1.75795   2
  21   1   3 -2.4593 6.98049   1
 -22  -1  -3 12.8709 12.8613   1
 -22  -1  -3 1.30450 2.51288   2
 -22  -1  -3 6.63223 3.73308   2
  22  -1   3 -7.7498 7.68016   1
  22  -1   3 -0.4892 3.13753   3
  22   1   3 9.20082 8.52844   1
  22   1   3 10.1240 4.56790   3
 -22   1  -3 -25.608 11.1482   1
 -23  -1  -3 34.9306 3.55713   2
  23  -1   3 30.8999 4.40209   3
 -23  -1  -3 17.7785 14.6568   1
 -23   1  -3 7.47242 18.0852   1
  23   1   3 24.8262 5.51985   3
  24  -1   3 39.5225 4.89650   3
 -24  -1  -3 38.2874 3.76007   2
  24   1   3 44.4172 6.49955   3
  24   1   3 40.8188 19.3070   1
 -24  -2   3 40.1019 18.7732   1
  24  -2  -3 14.2116 4.61571   3
  24   2  -3 1.93446 5.48440   3
  24   2  -3 1.74410 10.4804   1
  23  -2  -3 -12.280 7.18853   1
  23  -2  -3 0.77803 3.92941   3
  23   2  -3 8.86867 5.90948   3
 -23   2   3 17.6957 11.7709   1
 -22  -2   3 56.9951 5.06592   2
  22  -2  -3 38.1148 9.96460   1
  22  -2  -3 50.1954 5.91173   3
 -22  -2   3 50.4141 4.65451   2
 -22  -2   3 50.1497 14.8566   1
 -22   2   3 29.3345 11.2147   1
  22   2  -3 14.3767 10.7143   1
  22   2  -3 34.4656 6.83804   3
 -21  -2   3 33.4835 12.3278   1
 -21  -2   3 37.9602 3.74988   2
 -21  -2   3 48.6533 4.86828   2
  21  -2  -3 41.1366 9.42868   1
  21  -2  -3 41.6048 5.19580   3
  21   2  -3 32.3056 10.6482   1
 -21   2   3 11.6249 9.84107   1
  21   2  -3 51.1296 13.2029   3
 -20  -2   3 102.703 6.33431   2
  20  -2  -3 94.8220 8.14061   3
 -20  -2   3 100.883 6.30259   2
 -20  -2   3 76.4225 23.3745   1
  20   2  -3 92.7033 14.3928   1
  20   2  -3 100.646 10.0110   3
 -20   2   3 72.3137 12.6260   1
  19  -2  -3 8.03160 3.92911   3
 -19  -2   3 11.5367 2.85220   2
 -19  -2   3 -0.5309 8.83976   1
 -19  -2   3 6.47293 2.84784   2
  19  -2  -3 5.53526 6.57605   1
 -19   2   3 16.7413 7.88815   1
  19   2  -3 8.69778 5.17183   3
  19   2  -3 24.3838 9.50268   1
  18  -2  -3 9.81690 6.24244   1
 -18  -2   3 5.73900 9.17994   1
 -18  -2   3 11.1689 2.84756   2
 -18  -2   3 12.0293 2.96945   2
  18  -2  -3 14.3708 4.31337   3
  18   2  -3 7.10949 4.83514   3
 -18   2   3 10.6220 6.76478   1
  18   2  -3 7.65534 7.35759   1
 -17  -2   3 0.84927 8.10999   1
  17  -2  -3 18.2517 4.06516   3
 -17  -2   3 17.5710 3.04349   2
  17  -2  -3 16.6884 6.54885   1
  17   2  -3 16.7217 11.8200   1
 -17   2   3 13.7713 8.78264   1
  17   2  -3 16.8585 4.91800   3
 -16  -2   3 130.380 16.2356   1
 -16  -2   3 152.642 7.76545   2
  16  -2  -3 149.870 13.8662   1
  16   2  -3 128.252 14.1208   1
  16   2  -3 147.613 10.0949   3
 -16   2   3 151.547 17.5477   1
 -15  -2   3 6.51178 2.75023   2
  15  -2  -3 3.38249 5.66997   1
  15  -2  -3 7.87408 3.63016   3
 -15  -2   3 -4.1446 7.45434   1
 -15   2   3 1.80231 7.66723   1
  15   2  -3 4.35290 6.47273   1
  15   2  -3 17.1055 5.10633   3
  14  -2  -3 297.962 13.6049   3
  14  -2  -3 304.674 18.2212   1
 -14  -2   3 325.278 13.0611   2
 -14  -2   3 316.849 21.5778   1
  14   2  -3 325.196 14.7359   3
  14   2  -3 303.728 20.1519   1
 -13  -2   3 67.1073 5.24251   2
  13  -2  -3 56.6510 8.22978   1
 -13  -2   3 61.1855 10.7916   1
  13  -2  -3 69.4769 5.99686   3
  13   2  -3 74.0924 10.5356   1
  13   2  -3 77.2159 6.98211   3
  12  -2  -3 188.747 9.21650   3
  12  -2  -3 169.596 12.6026   1
 -12  -2   3 214.186 17.0460   1
 -12  -2   3 192.230 8.79955   2
  12   2  -3 195.249 14.6674   1
 -12   2   3 190.209 15.7788   1
  12   2  -3 185.959 10.2754   3
 -11  -2   3 528.441 20.5792   2
  11  -2  -3 509.744 24.2432   1
 -11  -2   3 556.052 27.9986   1
 -11  -2   3 533.227 21.5538   3
  11  -2  -3 530.790 20.7972   3
  11   2  -3 528.214 26.7823   1
 -11   2   3 544.025 24.9305   1
  11   2  -3 559.842 21.8402   3
 -10  -2   3 1029.80 37.1109   2
  10  -2  -3 998.296 40.4618   1
  10  -2  -3 1016.88 37.2222   3
  10  -2  -3 977.881 36.0372   2
  10  -2  -3 1002.76 36.0439   2
 -10  -2   3 1018.62 38.4295   3
 -10  -2   3 989.024 43.7659   1
  10   2  -3 1035.42 43.2974   1
 -10   2   3 990.644 39.6620   1
  -9  -2   3 101.083 6.52936   3
   9  -2  -3 95.3852 4.13686   2
   9  -2  -3 104.454 5.65759   3
   9  -2  -3 96.9661 4.18465   2
   9  -2  -3 93.1217 7.76468   1
  -9  -2   3 89.8206 6.25407   2
  -9  -2   3 102.989 11.4786   1
  -9   2   3 102.659 7.07927   1
   9   2  -3 104.471 6.64782   3
   9   2  -3 98.4645 5.59464   2
   9   2  -3 96.0796 9.80204   1
   8  -2  -3 20.2751 4.00108   1
  -8  -2   3 21.6924 3.87381   2
   8  -2  -3 24.9442 2.08220   2
  -8  -2   3 18.2823 3.25321   3
   8  -2  -3 20.1506 2.73182   3
  -8  -2   3 29.9605 6.99414   1
   8   2  -3 24.3580 5.78092   1
   8   2  -3 23.3603 3.26147   3
  -8   2   3 20.7317 3.34377   1
   8   2  -3 18.2052 2.69040   2
  -7  -2   3 -0.2342 4.75982   1
  -7  -2   3 -2.8900 1.80703   2
   7  -2  -3 0.39804 1.17931   2
   7  -2  -3 4.36855 2.86034   1
  -7  -2   3 6.97245 3.01037   3
   7  -2  -3 1.16981 2.08851   3
   7   2  -3 4.38793 4.00453   1
  -7   2   3 3.03135 1.82887   1
   7   2  -3 3.37681 2.02535   2
   7   2  -3 0.00598 2.31393   3
  -6  -2   3 491.381 18.9760   3
   6  -2  -3 435.396 22.3607   1
   6  -2  -3 500.189 18.7177   3
   6  -2  -3 493.356 18.1715   2
  -6  -2   3 499.507 18.7777   2
  -6  -2   3 514.898 23.7376   1
   6   2  -3 505.699 18.7749   2
   6   2  -3 482.370 18.9543   3
   6   2  -3 499.684 22.9509   1
   5  -2  -3 69.6788 4.88877   1
  -5  -2   3 70.6183 8.30065   1
  -5  -2   3 74.3388 4.81719   2
   5  -2  -3 78.0347 3.91921   2
  -5  -2   3 80.4781 5.00212   3
   5   2  -3 71.3968 8.38276   1
   5   2  -3 70.6703 4.97219   3
   5   2  -3 74.0699 4.74320   2
  -4  -2   3 1289.91 48.8009   1
   4  -2  -3 1180.33 44.0836   2
  -4  -2   3 1229.80 44.4751   2
   4  -2  -3 1176.67 44.4367   1
   4   2  -3 1256.41 44.5279   2
   4   2  -3 1208.94 44.4623   3
   4   2  -3 1204.75 48.1707   1
   3  -2  -3 7366.28 258.795   1
  -3  -2   3 7393.84 263.004   1
   3   2  -3 7034.25 262.475   1
  -2  -2   3 1388.75 52.4194   3
  -2  -2   3 1502.05 56.3683   1
  -2  -2   3 1419.01 52.6285   2
   2  -2  -3 1483.52 52.4916   2
   2   2  -3 1450.70 52.6883   2
   2   2  -3 1482.18 55.9423   1
   2   2  -3 1448.36 52.4425   3
   1  -2  -3 596.067 23.0211   3
   1  -2  -3 618.935 22.8296   2
  -1  -2   3 611.857 26.3035   1
  -1  -2   3 656.457 23.0263   2
   1  -2  -3 615.905 22.8335   1
  -1  -2   3 615.194 22.6075   3
   1   2  -3 623.902 26.0540   1
   1   2  -3 596.936 22.5770   3
   1   2  -3 596.857 22.9871   2
   0  -2  -3 1546.15 56.7051   3
   0  -2   3 1560.54 59.6722   1
   0  -2   3 1535.39 56.1470   3
   0  -2  -3 1640.39 57.1859   1
   0  -2   3 1554.30 56.5673   2
   0   2  -3 1594.90 56.6509   2
   0   2  -3 1564.65 56.1610   3
   0   2  -3 1518.43 59.3494   1
  -1  -2  -3 1009.73 36.7070   1
   1  -2   3 989.854 38.7654   1
   1  -2   3 955.232 35.4790   2
   1  -2   3 937.027 34.8997   3
  -1  -2  -3 966.884 35.7200   3
  -1   2  -3 976.906 38.4141   1
  -1   2  -3 965.664 34.9188   3
  -1   2  -3 966.854 35.5444   2
   2  -2   3 814.482 32.0710   1
  -2  -2  -3 815.066 30.5789   1
   2  -2   3 748.892 27.9256   3
  -2  -2  -3 758.542 28.9693   3
   2  -2   3 772.613 28.6885   2
  -2   2  -3 790.482 27.9599   3
  -2   2  -3 740.378 28.6871   2
  -2   2  -3 800.729 31.6861   1
  -3  -2  -3 546.965 22.5441   1
   3  -2   3 547.981 20.1188   2
   3  -2   3 536.824 23.3580   1
  -3  -2  -3 512.435 20.4102   3
  -3   2  -3 540.201 23.1280   1
  -3   2  -3 542.050 22.9669   1
   3   2   3 520.639 21.7679   1
  -3   2  -3 542.560 20.1775   2
   3   2   3 537.431 20.5809   3
  -4  -2  -3 85.1955 7.21199   1
   4  -2   3 90.7333 7.92693   1
   4  -2   3 75.0375 4.46429   2
  -4  -2  -3 75.3710 5.13167   3
   4   2   3 77.2875 5.19228   3
  -4   2  -3 80.8110 4.63338   2
  -4   2  -3 91.0920 7.27034   1
   4   2   3 76.0979 6.35949   1
  -4   2  -3 83.1858 7.44817   1
  -5  -2  -3 14.2661 4.53082   1
  -5  -2  -3 18.5882 3.00482   3
   5  -2   3 10.6110 2.04065   2
   5   2   3 12.7208 3.72376   1
   5   2   3 7.02071 2.66423   3
  -5   2  -3 12.3939 4.36274   1
  -5   2  -3 16.1747 4.10901   1
  -5   2  -3 8.14333 1.95350   2
   6  -2   3 -2.9746 1.43745   2
  -6  -2  -3 -2.6885 2.57521   3
  -6  -2  -3 2.00343 4.00149   1
  -6   2  -3 0.15733 1.66220   2
  -6   2  -3 -0.5982 3.43413   1
   6   2   3 0.85445 2.42038   3
   6   2   3 3.58910 3.57954   1
  -6   2  -3 6.11218 3.44484   1
  -7  -2  -3 87.3630 5.34408   2
  -7  -2  -3 89.6094 5.88477   3
   7  -2   3 92.4168 4.72912   2
  -7  -2  -3 98.6796 8.78984   1
   7   2   3 95.9756 6.06720   3
  -7   2  -3 102.627 8.25364   1
  -7   2  -3 91.4452 8.35426   1
  -7   2  -3 93.9546 4.91659   2
   7   2   3 92.1758 7.93919   1
   8  -2   3 98.9118 4.91692   2
  -8  -2  -3 98.1393 6.20704   3
  -8  -2  -3 93.2001 6.85229   2
  -8  -2  -3 102.083 9.53548   1
  -8   2  -3 88.9167 5.06613   2
  -8   2  -3 94.7740 8.88730   1
   8   2   3 106.961 8.82570   1
  -8   2  -3 96.1818 8.34411   1
   8   2   3 96.3727 6.37274   3
   9  -2   3 431.675 16.5800   2
  -9  -2  -3 463.929 18.4413   3
   9  -2   3 442.895 15.8262   3
  -9  -2  -3 451.537 17.1578   2
  -9  -2  -3 469.433 23.2164   1
  -9   2  -3 416.247 21.2428   1
  -9   2  -3 456.272 16.7428   2
  -9   2  -3 344.301 20.3105   1
   9   2   3 450.402 22.0647   1
 -10  -2  -3 471.326 24.3599   1
 -10  -2  -3 479.849 19.1892   3
  10  -2   3 468.234 23.3648   1
  10  -2   3 471.854 17.3424   3
  10  -2   3 458.189 17.7806   2
 -10  -2  -3 474.904 18.3909   2
 -10   2  -3 446.942 22.6042   1
  10   2   3 481.651 19.2987   3
 -10   2  -3 490.189 17.9778   2
  10   2   3 466.746 23.6547   1
  11  -2   3 10.3496 2.02485   2
 -11  -2  -3 8.95927 5.81868   1
 -11  -2  -3 10.1219 2.85407   2
 -11  -2  -3 10.9255 3.05340   2
  11  -2   3 12.4105 1.64013   3
 -11  -2  -3 5.77554 3.43807   3
  11  -2   3 1.82947 5.17103   1
  11   2   3 5.00553 3.38831   3
 -11   2  -3 3.38735 3.45610   1
  11   2   3 14.2965 5.94942   1
 -11   2  -3 7.55748 5.17864   1
 -11   2  -3 10.7186 1.66481   3
 -11   2  -3 11.5514 2.23176   2
 -12  -2  -3 8.49067 3.15779   2
  12  -2   3 5.16925 5.78770   1
  12  -2   3 7.17418 1.70239   3
  12  -2   3 0.84452 1.80063   2
 -12  -2  -3 5.46507 6.35195   1
 -12  -2  -3 4.90352 2.61226   2
 -12   2  -3 6.84129 6.79682   1
 -12   2  -3 7.04478 1.76086   3
  12   2   3 6.21822 3.68513   3
  12   2   3 10.7524 6.27948   1
 -12   2  -3 4.11733 2.12340   2
  13  -2   3 664.769 25.5565   2
  13  -2   3 678.202 33.2321   1
 -13  -2  -3 660.118 34.1441   1
 -13  -2  -3 703.964 26.5719   2
 -13  -2  -3 722.051 26.4296   2
  13  -2   3 677.717 25.3941   3
  13   2   3 682.826 33.2545   1
  13   2   3 731.095 27.5865   3
 -13   2  -3 693.479 32.4777   1
 -13   2  -3 691.472 25.7271   2
 -13   2  -3 684.768 25.3952   3
 -14  -2  -3 8.29445 7.38879   1
  14  -2   3 3.91902 5.32821   1
  14  -2   3 1.38027 1.79714   2
  14  -2   3 3.25859 1.90282   3
 -14  -2  -3 7.85810 3.22991   2
 -14  -2  -3 3.95011 2.93297   2
  14   2   3 4.07251 9.43550   1
 -14   2  -3 2.97618 2.15168   2
 -14   2  -3 2.31836 5.70232   1
  14   2   3 3.44317 4.35889   3
  15  -2   3 4.89343 1.77966   2
  15  -2   3 6.10498 2.03395   3
  15  -2   3 5.56590 5.49586   1
 -15  -2  -3 -5.5826 7.49101   1
 -15  -2  -3 4.18138 3.01346   2
 -15  -2  -3 1.47329 2.94125   2
 -15   2  -3 1.82756 1.92225   3
  15   2   3 8.26132 6.03406   1
  15   2   3 4.99896 4.35658   3
 -15   2  -3 3.64154 5.87216   1
 -15   2  -3 4.11698 2.16856   2
  16  -2   3 1.68492 5.96345   1
  16  -2   3 2.43854 2.01308   3
 -16  -2  -3 13.1614 8.30857   1
 -16  -2  -3 1.88643 2.90060   2
 -16  -2  -3 3.54788 3.47677   2
  16  -2   3 3.24536 1.66509   2
 -16   2  -3 -1.7057 1.91691   2
  16   2   3 -5.3062 5.91789   1
 -16   2  -3 -5.7409 5.54198   1
 -16   2  -3 2.18433 1.99543   3
  16   2   3 5.50508 4.12422   3
 -17  -2  -3 3.76887 8.05920   1
  17  -2   3 1.30700 2.10495   3
 -17  -2  -3 1.94451 3.06257   2
  17  -2   3 11.2009 7.22512   1
 -17  -2  -3 1.76976 2.86891   2
 -17   2  -3 2.43567 2.00639   2
  17   2   3 -11.211 5.62555   1
  17   2   3 0.46560 3.76573   3
 -17   2  -3 5.00258 2.15978   3
 -17   2  -3 -2.1900 5.70551   1
  18  -2   3 7.54315 10.7195   1
 -18  -2  -3 10.2871 3.26298   2
 -18  -2  -3 34.3350 10.9947   1
  18  -2   3 16.9028 2.77271   3
 -18  -2  -3 14.3907 3.62108   2
 -18   2  -3 -7.0675 5.80077   1
 -18   2  -3 13.7036 2.51880   3
  18   2   3 16.6444 5.21647   3
 -18   2  -3 10.6673 2.11481   2
  18   2   3 6.45307 7.56496   1
 -19  -2  -3 5.29586 9.33569   1
 -19  -2  -3 4.31801 3.67235   2
  19  -2   3 9.68548 7.64256   1
 -19  -2  -3 -2.0786 2.99635   2
  19  -2   3 1.49148 2.30581   3
  19   2   3 4.00066 4.18736   3
 -19   2  -3 1.08503 1.68259   2
  19   2   3 4.43752 6.48742   1
 -19   2  -3 -7.7301 6.05390   1
 -19   2  -3 -2.3183 1.97540   3
 -20  -2  -3 51.7944 14.5773   1
 -20  -2  -3 63.6173 6.38538   2
  20  -2   3 55.1801 10.6951   1
  20   2   3 64.5370 11.9113   1
  20   2   3 72.5239 8.67729   3
 -21  -2  -3 36.9224 13.4383   1
  21  -2   3 53.9701 11.3213   1
 -21  -2  -3 41.3213 4.47372   2
  21   2   3 41.7676 6.76170   3
  21   2   3 28.7437 10.4613   1
  22  -2   3 17.8188 10.4173   1
 -22  -2  -3 40.3290 4.42370   2
  22  -2   3 33.6192 3.97311   3
 -22  -2  -3 32.9908 15.7303   1
  22   2   3 45.0109 7.07642   3
 -22   2  -3 -23.192 15.7391   1
 -23  -2  -3 13.5166 19.5185   1
  23  -2   3 22.0997 3.36639   3
 -23  -2  -3 17.6147 3.77349   2
  23   2   3 23.6112 6.24729   3
  23  -3  -3 12.5653 4.02115   3
 -23  -3   3 55.4820 21.1112   1
 -23  -3   3 25.6334 4.08561   2
  23   3  -3 24.9007 7.29469   3
 -22  -3   3 0.93228 3.50906   2
  22  -3  -3 -0.3672 3.32099   3
  22   3  -3 4.45352 5.91150   3
 -22   3   3 7.36309 9.69258   1
 -21  -3   3 24.8576 4.16072   2
  21  -3  -3 29.7591 10.1581   1
 -21  -3   3 28.7676 13.6837   1
  21  -3  -3 25.3191 4.36701   3
  21   3  -3 28.7982 6.64200   3
  21   3  -3 25.2852 11.5606   1
 -21   3   3 9.63999 8.74601   1
  20  -3  -3 -16.365 7.60558   1
 -20  -3   3 0.19551 3.37094   2
  20  -3  -3 1.83526 3.39574   3
 -20  -3   3 -21.932 11.3955   1
  20   3  -3 2.80146 5.99580   3
  19  -3  -3 27.1999 4.11798   3
 -19  -3   3 6.89384 10.3472   1
 -19   3   3 7.21281 7.68279   1
 -19   3   3 20.4792 9.09729   1
  19   3  -3 6.50112 6.97563   3
  19   3  -3 10.0459 7.62700   1
  18  -3  -3 13.5611 3.90138   3
  18  -3  -3 10.5215 9.27131   1
 -18  -3   3 17.3381 3.89489   2
 -18  -3   3 -5.4235 9.52405   1
 -18   3   3 5.69507 5.43747   1
  18   3  -3 -3.6994 6.77916   1
 -18   3   3 9.41420 5.12452   1
  18   3  -3 3.79614 5.26374   3
 -17  -3   3 46.0595 13.0422   1
  17  -3  -3 46.7217 8.70807   1
 -17  -3   3 58.0439 5.21055   2
  17  -3  -3 43.6782 4.85195   3
  17   3  -3 37.9401 9.58567   1
 -17   3   3 52.5985 7.03866   1
 -17   3   3 38.0523 6.89349   1
  17   3  -3 61.0834 7.36939   3
  16  -3  -3 127.532 12.3347   1
 -16  -3   3 113.404 15.7520   1
 -16  -3   3 120.741 7.97344   2
  16   3  -3 118.425 13.8538   1
 -16   3   3 113.458 10.1781   1
  16   3  -3 137.062 10.0845   3
 -16   3   3 121.172 9.65689   1
  15  -3  -3 12.5159 3.73563   3
 -15  -3   3 23.2040 10.5217   1
  15  -3  -3 12.4316 6.00656   1
  15   3  -3 12.7142 7.25983   1
 -15   3   3 12.0365 4.17453   1
 -15   3   3 15.0393 4.82954   1
  15   3  -3 11.1623 5.05732   3
  14  -3  -3 198.802 10.0629   3
 -14  -3   3 208.008 10.4195   2
  14  -3  -3 182.608 14.0835   1
 -14  -3   3 180.234 21.5717   1
 -14   3   3 189.651 11.6895   1
 -14   3   3 197.192 11.1877   1
  14   3  -3 218.540 11.7545   3
  14   3  -3 183.255 16.2205   1
 -13  -3   3 8.52481 3.64592   2
  13  -3  -3 15.4707 5.61744   1
  13  -3  -3 7.30318 1.23523   2
 -13  -3   3 12.6644 8.60973   1
  13  -3  -3 16.6868 3.48432   3
  13  -3  -3 7.59789 1.28808   2
 -13   3   3 8.58006 3.50731   1
  13   3  -3 8.76041 7.30450   1
  13   3  -3 15.2994 5.18675   3
 -13   3   3 7.37669 3.64712   1
  12  -3  -3 66.4749 5.76929   3
 -12  -3   3 71.0673 11.5929   1
  12  -3  -3 72.9477 3.69604   2
 -12  -3   3 71.6799 6.33116   2
  12  -3  -3 77.8624 9.02700   1
 -12   3   3 73.5985 5.55392   1
 -12   3   3 69.3142 5.54941   1
  12   3  -3 83.3616 7.69240   3
 -11  -3   3 229.062 10.4804   2
  11  -3  -3 213.177 12.9927   1
  11  -3  -3 200.766 8.56802   2
 -11  -3   3 221.032 18.0706   1
  11  -3  -3 213.438 9.87775   3
  11   3  -3 205.902 15.6465   1
  11   3  -3 234.952 11.3922   3
 -10  -3   3 7.76470 2.90780   2
  10  -3  -3 10.3708 4.21858   1
  10  -3  -3 6.97544 2.89966   3
 -10  -3   3 -0.3966 6.29266   1
  10  -3  -3 7.13960 1.73136   2
  10   3  -3 3.08176 3.58059   3
  10   3  -3 6.45544 6.01193   1
  -9  -3   3 598.352 29.5269   1
  -9  -3   3 549.718 22.4755   3
   9  -3  -3 561.876 21.6870   3
   9  -3  -3 568.397 23.9683   1
  -9  -3   3 583.050 22.1520   2
   9  -3  -3 541.761 20.9956   2
   9   3  -3 580.777 22.0779   2
   9   3  -3 541.958 27.3387   1
   8  -3  -3 36.6934 5.08161   1
  -8  -3   3 35.5507 7.73650   1
  -8  -3   3 37.5795 6.16900   3
   8  -3  -3 32.6637 4.13108   3
  -8  -3   3 28.0102 3.44324   2
   8  -3  -3 31.1935 3.21236   2
   8   3  -3 23.0522 6.49050   1
   8   3  -3 31.1455 3.46893   2
   8   3  -3 35.9806 6.14965   3
  -7  -3   3 216.190 15.6278   1
  -7  -3   3 211.158 9.99633   3
   7  -3  -3 212.913 9.21374   3
  -7  -3   3 215.014 9.78093   2
   7  -3  -3 204.656 10.0855   1
   7  -3  -3 197.006 8.64319   2
   7   3  -3 204.988 9.67772   2
   7   3  -3 204.122 14.0924   1
   7   3  -3 210.379 9.99461   3
  -6  -3   3 107.140 6.42882   2
  -6  -3   3 110.180 6.66832   3
  -6  -3   3 109.708 11.4736   1
   6  -3  -3 106.389 5.46908   2
   6  -3  -3 104.610 6.04232   1
   6   3  -3 111.593 6.62178   3
   6   3  -3 106.940 9.66428   1
   6   3  -3 108.871 6.50161   2
  -5  -3   3 292.974 17.1964   1
   5  -3  -3 278.005 11.7734   2
  -5  -3   3 276.746 12.1723   2
  -5  -3   3 287.277 12.1679   3
   5   3  -3 292.086 12.3341   2
   5   3  -3 299.354 16.3540   1
   5   3  -3 295.519 12.1780   3
  -4  -3   3 90.7772 5.78622   2
  -4  -3   3 79.0952 9.60092   1
   4  -3  -3 91.5984 7.07923   2
   4  -3  -3 73.8642 4.99209   3
  -4  -3   3 89.0627 5.52787   3
   4   3  -3 81.3713 8.51752   1
   4   3  -3 92.0366 5.80555   2
   4   3  -3 80.3938 5.33275   3
  -3  -3   3 549.779 21.1396   3
   3  -3  -3 567.037 21.1743   2
   3  -3  -3 558.162 21.2615   3
  -3  -3   3 570.301 21.5189   2
  -3  -3   3 587.340 26.1691   1
   3   3  -3 538.447 24.8459   1
   3   3  -3 548.979 21.4849   2
   3   3  -3 544.321 21.1687   3
  -2  -3   3 12.3179 4.83043   1
   2  -3  -3 12.3479 2.23031   2
  -2  -3   3 8.58357 2.40345   2
  -2  -3   3 15.3371 2.55866   3
   2  -3  -3 15.2229 1.76965   1
   2  -3  -3 12.9006 2.59469   3
   2   3  -3 15.9268 2.97426   2
   2   3  -3 12.5550 2.42682   3
   2   3  -3 9.19331 4.47176   1
   1  -3  -3 564.510 21.9983   3
  -1  -3   3 549.321 25.7784   1
   1  -3  -3 593.856 22.0368   1
   1  -3  -3 595.188 21.9699   2
  -1  -3   3 599.205 22.1170   2
   1   3  -3 585.029 25.3605   1
   1   3  -3 569.015 21.5600   3
   1   3  -3 551.389 22.2482   2
   0  -3  -3 6.28270 2.50795   1
   0  -3   3 2.02046 2.11973   2
   0  -3   3 2.19794 1.83636   3
   0  -3   3 4.66122 4.49894   1
   0  -3  -3 2.57279 2.07301   2
   0  -3  -3 2.63563 2.33442   3
   0   3  -3 3.94480 1.82205   3
   0   3  -3 1.09896 3.53333   1
   0   3  -3 2.40343 3.14458   2
   1  -3   3 15.4007 1.96333   3
   1  -3   3 17.0703 4.99537   1
  -1  -3  -3 13.9502 3.30518   1
  -1  -3  -3 10.2417 2.63192   3
  -1  -3  -3 13.8910 2.45281   2
   1  -3   3 7.62282 2.40204   2
  -1   3  -3 8.60699 3.89472   1
  -1   3  -3 11.9173 1.89703   3
   2  -3   3 6.29676 4.20344   1
   2  -3   3 8.80468 2.32211   2
   2  -3   3 13.2387 1.69987   3
  -2  -3  -3 6.80487 2.86912   3
  -2  -3  -3 9.99479 2.59978   2
  -2  -3  -3 7.81427 3.40578   1
  -2   3  -3 10.0541 4.63152   2
  -2   3  -3 17.5424 4.30831   1
   3  -3   3 227.309 9.74252   2
   3  -3   3 217.458 8.47850   3
  -3  -3  -3 228.466 10.0281   2
  -3  -3  -3 220.179 10.1216   3
  -3  -3  -3 239.372 12.5177   1
   3  -3   3 230.979 13.2793   1
  -3   3  -3 224.586 12.5130   1
  -3   3  -3 230.676 12.6418   2
   3   3   3 222.771 10.5366   1
  -3   3  -3 219.378 12.5244   1
  -4  -3  -3 26.6177 5.20971   1
  -4  -3  -3 30.6717 3.80676   3
  -4  -3  -3 24.8950 3.34082   2
   4  -3   3 24.5177 5.48403   1
   4  -3   3 21.0109 2.83436   2
  -4   3  -3 21.1487 4.71029   1
  -4   3  -3 23.7375 4.16987   2
   4   3   3 20.3523 3.58770   3
  -4   3  -3 19.4624 5.40367   1
   4   3   3 21.5389 3.87722   1
   5  -3   3 152.637 7.28856   2
  -5  -3  -3 147.357 7.87261   3
  -5  -3  -3 164.614 10.9348   1
  -5  -3  -3 148.669 7.72760   2
  -5   3  -3 126.249 8.57553   2
  -5   3  -3 154.697 14.2617   1
   5   3   3 143.018 9.68601   3
  -5   3  -3 169.418 10.5183   1
   5   3   3 148.446 9.35785   1
   6  -3   3 277.295 11.7997   2
  -6  -3  -3 302.900 16.4690   1
  -6  -3  -3 274.248 12.3226   2
  -6  -3  -3 291.715 12.7742   3
   6   3   3 290.560 14.8863   1
  -6   3  -3 256.020 13.0774   2
  -6   3  -3 306.475 15.4705   1
   6   3   3 306.415 13.0553   3
   7  -3   3 49.7795 4.16153   2
  -7  -3  -3 48.4362 7.53322   1
  -7  -3  -3 54.0491 5.23477   3
  -7  -3  -3 38.7799 3.95888   2
  -7   3  -3 42.9913 6.32610   1
  -7   3  -3 36.6895 4.31514   2
   7   3   3 38.1972 5.99494   1
   8  -3   3 132.550 6.84985   2
  -8  -3  -3 135.462 7.84435   2
  -8  -3  -3 146.324 12.5071   1
   8   3   3 151.600 8.48576   3
   8   3   3 142.587 11.1105   1
  -8   3  -3 136.785 8.52494   2
  -8   3  -3 134.819 10.5755   1
  -9  -3  -3 0.88771 3.05039   2
   9  -3   3 1.16518 2.08883   2
  -9  -3  -3 0.85735 5.95917   1
  -9   3  -3 1.44978 2.94543   2
   9   3   3 0.45046 3.43072   3
  -9   3  -3 5.94054 7.38541   1
  10  -3   3 5.26233 2.21611   2
 -10  -3  -3 -1.9421 2.65314   2
 -10  -3  -3 6.60589 6.63416   1
 -10   3  -3 -0.2567 4.76430   2
  10   3   3 1.46148 3.82242   3
  10   3   3 6.71180 4.87484   1
 -10   3  -3 -2.2386 4.46777   1
 -11  -3  -3 47.7647 8.76805   2
  11  -3   3 46.9194 4.36589   2
 -11  -3  -3 59.7281 5.98327   2
 -11  -3  -3 43.9455 9.72250   1
 -11   3  -3 65.6403 7.16350   2
  11   3   3 42.9651 7.95705   1
  11   3   3 68.7103 7.07474   3
 -11   3  -3 55.1091 8.11427   1
 -12  -3  -3 184.697 9.86642   2
 -12  -3  -3 194.002 17.3444   1
  12  -3   3 178.714 8.31240   2
 -12  -3  -3 195.373 9.68222   2
 -12   3  -3 191.794 13.8877   1
  12   3   3 169.352 13.9322   1
 -12   3  -3 168.748 15.3576   1
  12   3   3 197.397 11.0901   3
 -13  -3  -3 185.579 9.75996   2
 -13  -3  -3 178.966 10.0412   2
 -13  -3  -3 170.523 17.3101   1
  13  -3   3 185.332 8.26512   2
 -13   3  -3 190.677 14.3802   1
 -13   3  -3 200.513 15.8751   1
  13   3   3 203.434 11.0818   3
  13   3   3 182.733 15.3187   1
 -14  -3  -3 14.6120 3.64251   2
  14  -3   3 17.9987 2.46011   2
 -14  -3  -3 3.17384 8.27224   1
  14   3   3 20.1448 7.38879   1
  14   3   3 13.1742 4.52229   3
 -14   3  -3 25.1906 7.54504   1
 -14   3  -3 13.7762 3.58102   2
 -14   3  -3 19.2223 6.43295   1
 -15  -3  -3 43.5508 11.5253   1
 -15  -3  -3 29.0087 4.09607   2
  15  -3   3 30.6908 2.86303   2
  15   3   3 29.6274 8.49165   1
 -15   3  -3 14.5056 11.9901   1
 -15   3  -3 37.9310 3.85979   2
  15   3   3 32.2350 5.43276   3
 -15   3  -3 34.1900 7.40478   1
 -16  -3  -3 3.86294 3.64714   2
 -16  -3  -3 4.13088 8.95778   1
  16  -3   3 1.16929 1.78822   2
  16   3   3 3.37046 6.17066   1
 -16   3  -3 -0.4169 3.16428   2
  16   3   3 1.81727 4.25008   3
 -17  -3  -3 -6.3865 8.36465   1
 -17  -3  -3 6.29877 3.91206   2
  17   3   3 3.07921 7.77738   1
 -17   3  -3 -3.3520 9.31494   1
  17   3   3 3.49520 4.49506   3
 -17   3  -3 8.97869 6.22313   1
  18  -3   3 7.16274 1.96209   2
 -18  -3  -3 17.5805 9.69828   1
 -18  -3  -3 3.24981 3.77171   2
  18   3   3 1.89235 5.03642   3
 -18   3  -3 4.53291 2.13672   2
 -18   3  -3 3.60331 7.91742   1
  18   3   3 5.19153 7.70231   1
 -19  -3  -3 49.4841 6.75274   2
  19   3   3 42.5935 12.7355   1
  19   3   3 60.9802 7.82537   3
 -19   3  -3 44.1756 11.2672   1
 -19   3  -3 49.1354 3.58631   2
 -20  -3  -3 41.6713 14.3908   1
 -20  -3  -3 23.7534 4.53397   2
 -20   3  -3 19.1256 10.7592   1
  20   3   3 15.6184 5.54776   3
 -21  -3  -3 0.64856 3.75161   2
  21   3   3 3.74564 6.21551   3
 -22  -3  -3 17.9534 4.40206   2
  22   3   3 14.8717 5.92932   3
 -21  -4   3 5.54790 4.30782   2
  21  -4  -3 5.34626 2.94813   3
  21   4  -3 14.0050 7.04451   3
  20  -4  -3 4.05323 2.99947   3
  20   4  -3 -7.9434 5.34490   3
  19  -4  -3 12.5659 3.37838   3
 -19  -4   3 8.49465 14.4923   1
  19  -4  -3 3.18708 7.61929   1
  19   4  -3 23.6990 7.06390   3
  18  -4  -3 3.91145 7.27082   1
  18  -4  -3 8.02099 3.31546   3
 -18  -4   3 34.4981 12.0179   1
  18   4  -3 1.64425 5.54053   3
  17  -4  -3 -2.5282 6.14333   1
  17  -4  -3 1.20901 3.10540   3
  17   4  -3 -12.705 6.74768   1
  17   4  -3 6.73835 8.62877   3
 -16  -4   3 21.2919 11.2092   1
  16  -4  -3 36.9677 8.12876   1
  16   4  -3 43.8025 10.5588   1
  16   4  -3 58.9905 7.93320   3
  15  -4  -3 32.5125 2.28296   2
  15  -4  -3 38.8000 4.36939   3
  15  -4  -3 33.3861 7.36401   1
 -15  -4   3 11.2208 10.1119   1
  15  -4  -3 34.2901 2.34461   2
  15   4  -3 32.4706 6.19997   3
  15   4  -3 19.8883 10.0326   1
  14  -4  -3 19.1522 2.05986   2
  14  -4  -3 19.2630 2.19432   2
 -14  -4   3 11.5026 10.5943   1
  14  -4  -3 25.5918 6.13870   1
  14   4  -3 19.0961 5.38072   3
  14   4  -3 7.21832 7.24895   1
 -13  -4   3 12.3932 9.34161   1
  13  -4  -3 4.77481 3.85443   3
  13  -4  -3 0.06293 1.77676   2
  13  -4  -3 1.16234 4.33982   1
  13   4  -3 0.94214 4.53754   3
  13   4  -3 -9.5390 5.32736   1
  12  -4  -3 56.4994 4.80532   2
 -12  -4   3 47.9420 10.7752   1
  12  -4  -3 55.8713 5.25950   3
  12   4  -3 40.2733 8.46804   1
  12   4  -3 66.5837 7.85264   3
  11  -4  -3 5.16514 2.04087   2
  11  -4  -3 9.12456 3.03180   3
 -11  -4   3 11.2858 7.81632   1
  11   4  -3 0.64172 4.09356   3
  11   4  -3 -0.0844 5.15473   1
  10  -4  -3 86.4548 5.90304   3
 -10  -4   3 81.0653 13.2269   1
  10  -4  -3 82.1396 5.13895   2
  10   4  -3 87.1095 7.95805   3
  10   4  -3 81.8293 10.9947   1
   9  -4  -3 24.5246 2.95458   2
   9  -4  -3 29.0343 3.59346   3
  -9  -4   3 27.4007 8.20713   1
   9  -4  -3 31.1376 3.58279   3
  -9  -4   3 35.3871 5.23252   2
   9   4  -3 29.1027 4.95357   3
   9   4  -3 17.3529 6.35948   1
  -8  -4   3 239.383 11.9150   2
  -8  -4   3 245.310 17.9358   1
   8  -4  -3 244.647 11.0190   3
   8  -4  -3 250.093 10.8932   3
   8  -4  -3 238.070 10.6252   2
   8   4  -3 279.541 12.3947   3
   8   4  -3 245.419 11.9451   2
   8   4  -3 246.920 16.5220   1
  -7  -4   3 205.656 16.7158   1
   7  -4  -3 208.291 9.66624   3
  -7  -4   3 211.196 10.6263   2
   7  -4  -3 202.407 9.50980   2
   7  -4  -3 228.848 9.96722   3
   7   4  -3 212.665 10.8909   3
   7   4  -3 206.203 14.6882   1
   7   4  -3 217.545 10.7566   2
  -6  -4   3 116.088 7.50677   2
   6  -4  -3 105.614 6.28407   2
  -6  -4   3 111.751 7.40210   3
  -6  -4   3 131.483 13.3206   1
   6  -4  -3 103.815 6.34058   3
   6   4  -3 91.3965 9.04600   3
   6   4  -3 126.261 7.66670   2
   6   4  -3 129.101 11.5284   1
   5  -4  -3 -0.3179 2.48332   3
  -5  -4   3 1.64821 3.20167   2
   5  -4  -3 2.91783 2.44338   2
  -5  -4   3 -2.2864 5.68067   1
   5   4  -3 2.00944 2.90611   2
   5   4  -3 -2.9714 4.14900   1
   4  -4  -3 68.4291 5.42497   2
   4  -4  -3 73.3688 5.23161   3
  -4  -4   3 69.1052 5.68423   3
  -4  -4   3 71.0694 9.84648   1
   4   4  -3 72.8218 6.46160   2
   4   4  -3 71.1878 5.89574   3
   4   4  -3 82.6330 8.96867   1
   3  -4  -3 3.48595 2.80185   3
   3  -4  -3 4.10410 2.41148   2
  -3  -4   3 2.36831 2.79391   3
  -3  -4   3 2.42329 5.42952   1
  -3  -4   3 7.21832 4.08103   2
   3   4  -3 4.33580 2.84237   3
   3   4  -3 2.70839 4.97868   1
   3   4  -3 8.38714 3.30468   2
  -2  -4   3 17.4665 6.35376   1
   2  -4  -3 23.6464 3.53157   3
  -2  -4   3 19.4591 3.23003   3
   2  -4  -3 18.4736 3.26209   2
   2  -4  -3 18.1580 2.61016   1
  -2  -4   3 19.1871 3.69896   2
   2   4  -3 16.7719 3.50466   2
   2   4  -3 18.0349 3.13329   3
   2   4  -3 14.1691 7.83809   1
  -1  -4   3 164.851 8.90702   2
  -1  -4   3 163.145 13.4460   1
   1  -4  -3 178.709 8.89757   1
   1  -4  -3 161.789 8.63916   2
   1  -4  -3 167.070 8.53243   3
  -1  -4   3 174.860 8.03046   3
   1   4  -3 171.750 9.06761   2
   1   4  -3 174.758 8.07166   3
   1   4  -3 158.236 14.8331   1
   0  -4  -3 16.6277 3.92056   1
   0  -4   3 6.53310 5.67085   1
   0  -4  -3 13.1209 3.00347   2
   0  -4   3 15.7124 3.15356   2
   0  -4   3 16.3731 2.78525   3
   0   4  -3 14.9214 3.37548   2
   0   4  -3 16.4405 7.85613   1
   0   4  -3 19.1258 2.89709   3
   1  -4   3 1.52017 2.19311   3
   1  -4   3 -0.6266 4.88923   1
   1  -4   3 1.86158 2.91109   2
  -1  -4  -3 1.68991 3.18261   3
  -1  -4  -3 1.64124 2.72958   2
  -1   4  -3 0.85944 6.48440   1
  -1   4  -3 2.99081 3.18850   2
  -2  -4  -3 476.095 18.7699   2
   2  -4   3 469.374 23.1587   1
  -2  -4  -3 443.241 18.6605   3
   2  -4   3 450.582 18.4004   2
  -2  -4  -3 455.079 21.2659   1
   2  -4   3 446.014 17.2523   3
  -2   4  -3 494.440 21.0681   1
  -2   4  -3 488.846 18.8278   2
  -2   4  -3 379.465 24.0509   1
  -3  -4  -3 -1.9357 3.93367   1
   3  -4   3 -3.3966 2.87200   2
  -3  -4  -3 -1.1978 3.83853   3
   3  -4   3 0.72721 4.80305   1
   3  -4   3 -0.1026 1.74326   3
  -3   4  -3 -2.7180 2.82597   2
  -3   4  -3 -0.2287 4.68678   1
  -3   4  -3 -1.5166 3.70878   1
  -4  -4  -3 97.2183 7.11726   2
   4  -4   3 105.042 10.5226   1
  -4  -4  -3 101.122 9.46186   1
   4  -4   3 95.1949 4.35026   3
   4  -4   3 98.8454 6.58572   2
  -4   4  -3 101.067 8.58893   1
  -4   4  -3 102.504 6.97146   2
  -4   4  -3 95.5361 8.59844   1
  -5  -4  -3 3.03700 4.97664   1
   5  -4   3 6.49142 3.05371   2
  -5  -4  -3 3.67732 3.17773   2
   5  -4   3 7.05411 5.16384   1
  -5   4  -3 2.32083 2.77431   2
   5   4   3 3.49646 3.22975   1
  -5   4  -3 7.41203 4.21727   1
  -5   4  -3 3.50733 3.96114   1
  -6  -4  -3 98.2284 10.1810   1
   6  -4   3 84.5895 6.02957   2
  -6  -4  -3 77.6239 6.84941   2
  -6   4  -3 93.0600 8.31730   1
  -6   4  -3 91.2819 6.44611   2
   6   4   3 84.9820 7.76484   1
  -6   4  -3 83.1557 8.31791   1
   6   4   3 87.8720 7.69504   3
  -7  -4  -3 -0.2471 5.10668   1
   7  -4   3 -2.4926 2.33530   2
  -7  -4  -3 -5.7330 3.95052   2
  -7   4  -3 0.16465 2.93106   2
  -7   4  -3 -1.6726 3.65309   1
   7   4   3 2.06809 3.82136   1
  -7   4  -3 -0.6209 3.96012   1
   7   4   3 -0.0568 3.80195   3
  -8  -4  -3 70.5420 10.2334   1
   8  -4   3 82.4077 6.00260   2
   8   4   3 85.2763 7.84495   3
   8   4   3 86.5025 8.76614   1
  -8   4  -3 97.4754 8.73963   1
  -8   4  -3 83.6376 8.61103   1
  -8   4  -3 94.5186 6.43005   2
   9  -4   3 24.7715 3.54538   2
  -9  -4  -3 19.6313 7.74154   1
  -9   4  -3 27.1704 3.62783   2
   9   4   3 32.2796 5.19322   3
  -9   4  -3 24.3941 5.53213   1
   9   4   3 26.8467 5.93180   1
  -9   4  -3 21.8074 5.49153   1
 -10  -4  -3 5.39735 7.23485   1
  10  -4   3 17.0097 3.09185   2
  10   4   3 16.9154 5.27243   3
 -10   4  -3 13.1718 3.29323   2
 -10   4  -3 10.7435 5.21149   1
 -10   4  -3 8.88880 4.76773   1
  10   4   3 9.41399 5.49879   1
  11  -4   3 17.2460 3.16625   2
 -11  -4  -3 25.5503 9.02322   1
 -11   4  -3 19.5061 3.50644   2
 -11   4  -3 15.6300 5.46022   1
 -11   4  -3 9.61131 5.44745   1
  11   4   3 13.9457 5.84215   1
  11   4   3 16.0490 5.06459   3
 -12  -4  -3 7.86603 3.93517   2
  12  -4   3 9.36572 2.60520   2
 -12  -4  -3 4.84576 8.24514   1
 -12   4  -3 -0.4173 4.66698   1
 -12   4  -3 9.91807 3.10656   2
  12   4   3 6.42933 5.75524   1
 -12   4  -3 6.34455 5.06238   1
  12   4   3 8.97088 4.84216   3
  13  -4   3 4.77578 2.44582   2
 -13  -4  -3 5.04441 7.98204   1
 -13  -4  -3 0.40358 3.71163   2
 -13   4  -3 1.00581 5.18260   1
  13   4   3 4.43172 6.53596   1
 -13   4  -3 1.82895 2.68571   2
 -13   4  -3 2.06431 5.92806   1
  13   4   3 0.09946 4.50883   3
  14  -4   3 7.16462 2.38319   2
 -14  -4  -3 5.47155 13.6509   1
 -14   4  -3 -6.3016 5.24936   1
  14   4   3 14.7242 5.48419   3
 -14   4  -3 4.05347 5.14859   1
  14   4   3 8.88960 6.20109   1
 -14   4  -3 8.10866 2.85084   2
 -15  -4  -3 14.8490 4.21007   2
 -15  -4  -3 25.4949 10.6468   1
  15  -4   3 11.9583 2.44164   2
  15   4   3 4.75675 6.61690   1
  15   4   3 17.2074 5.96562   3
 -15   4  -3 19.1284 6.83361   1
 -15   4  -3 21.0205 6.43904   1
 -15   4  -3 13.2745 3.02959   2
 -16  -4  -3 3.43263 9.12282   1
 -16  -4  -3 0.92774 4.10226   2
  16  -4   3 2.20901 1.87405   2
  16   4   3 -0.1552 6.55104   3
 -16   4  -3 4.65712 2.66864   2
 -16   4  -3 7.48549 6.65378   1
  17  -4   3 9.03088 2.21371   2
 -17  -4  -3 13.2046 4.97594   2
 -17   4  -3 16.0513 8.33056   1
 -17   4  -3 13.0960 2.69666   2
  17   4   3 22.2955 6.80375   3
 -18  -4  -3 96.9814 9.23750   2
  18   4   3 118.047 11.1707   3
 -19  -4  -3 4.39238 4.39352   2
  19   4   3 15.0750 6.17503   3
 -19   4  -3 19.2070 10.8758   1
 -20  -4  -3 7.85722 4.45635   2
  20   4   3 3.66954 5.64848   3
  18   5  -3 16.8155 7.32631   3
  17   5  -3 5.77816 6.42010   3
  16  -5  -3 2.39871 1.48221   2
  16   5  -3 -4.7719 5.24010   3
  15   5  -3 -0.5353 5.09065   3
  14  -5  -3 -4.1714 1.64686   2
  14  -5  -3 0.76325 2.20248   2
  14  -5  -3 0.89356 3.08622   3
  14   5  -3 0.93887 9.60340   3
 -13  -5   3 1.68628 15.4696   1
  13  -5  -3 1.88131 1.89453   2
  13  -5  -3 1.92246 3.14742   3
  13   5  -3 -0.7068 4.91326   3
  12  -5  -3 -1.3302 2.02910   2
  12  -5  -3 0.03873 2.64813   3
 -12  -5   3 -5.5485 9.11149   1
  12  -5  -3 0.06487 2.84122   3
  12   5  -3 -4.2647 4.85711   3
  12   5  -3 -8.8619 5.60494   1
  11  -5  -3 44.2249 4.80987   3
 -11  -5   3 36.2192 10.9432   1
  11  -5  -3 48.1234 4.76189   3
  11  -5  -3 30.8751 3.51362   2
  11   5  -3 21.3293 7.25271   1
  11   5  -3 34.2608 5.70809   3
  10  -5  -3 4.77480 2.92964   3
  10  -5  -3 7.87571 2.85461   3
  10   5  -3 9.17352 4.94418   3
  10   5  -3 1.47090 5.42474   1
   9  -5  -3 2.04800 2.55939   3
   9  -5  -3 2.54750 2.36778   2
   9  -5  -3 0.61849 2.85051   3
  -9  -5   3 13.9697 9.04994   1
   9   5  -3 2.29278 3.86391   3
   8  -5  -3 3.90985 3.14648   3
   8  -5  -3 5.00199 2.76765   3
   8  -5  -3 7.45638 2.64137   2
  -8  -5   3 5.45635 7.44151   1
   8   5  -3 1.87262 3.55727   3
   8   5  -3 -1.2415 5.21038   1
   7  -5  -3 1.10889 2.53531   3
  -7  -5   3 2.95203 7.24008   1
   7  -5  -3 -0.4667 2.21271   2
   7  -5  -3 2.17006 3.88698   3
   7   5  -3 1.19832 4.56836   1
   7   5  -3 -0.4221 3.35414   3
   6  -5  -3 0.59636 2.23735   2
  -6  -5   3 -2.4997 6.54541   1
   6  -5  -3 -1.6967 2.46155   3
   6   5  -3 -0.1378 3.65347   3
   6   5  -3 -0.1667 4.62241   1
   5  -5  -3 75.0042 6.17118   2
   5  -5  -3 58.4442 5.48501   3
  -5  -5   3 88.2819 11.9676   1
   5   5  -3 78.7400 9.10178   1
   5   5  -3 72.7262 7.32864   2
   5   5  -3 86.1822 7.08170   3
  -4  -5   3 59.2781 9.85361   1
   4   5  -3 29.8746 4.53655   2
   4   5  -3 50.9597 6.06357   3
   4   5  -3 42.5452 6.47607   1
  -3  -5   3 -2.2636 3.01438   3
  -3  -5   3 2.33685 6.16675   1
   3   5  -3 1.39829 3.72872   1
   3   5  -3 1.74288 3.32641   2
  -2  -5   3 -7.1456 5.54620   1
   2  -5  -3 1.42479 1.98121   1
   2   5  -3 3.48105 3.51471   2
   2   5  -3 -0.6176 3.55720   1
  -1  -5   3 25.8032 3.73900   3
   1  -5  -3 22.3437 3.73000   1
  -1  -5   3 16.5535 7.01076   1
   1   5  -3 20.5495 4.60082   1
   1   5  -3 16.4229 4.53107   2
   0  -5  -3 7.90692 3.60192   1
   0  -5   3 8.06937 2.96883   3
   0  -5   3 5.41139 6.12739   1
   0   5  -3 2.73405 3.94997   2
   0   5  -3 3.00135 3.85145   1
   0   5  -3 8.98011 3.84601   1
   1  -5   3 77.4837 5.25260   3
   1  -5   3 85.8958 11.0159   1
  -1  -5  -3 77.4458 8.13140   1
  -1   5  -3 78.1050 6.78035   1
  -1   5  -3 47.7603 5.38607   2
  -1   5  -3 64.5869 6.84015   1
   2  -5   3 1.68283 5.21264   1
  -2  -5  -3 -4.0059 3.91616   1
   2  -5   3 -1.6309 2.27122   3
  -2   5  -3 2.49386 3.18197   1
  -2   5  -3 3.91716 3.19641   1
  -2   5  -3 2.26184 4.06274   2
   3  -5   3 141.102 12.4856   1
  -3  -5  -3 131.153 11.2718   1
  -3   5  -3 129.153 7.88594   1
  -3   5  -3 141.879 8.99260   2
  -4  -5  -3 112.095 11.0528   1
   4  -5   3 110.427 4.94126   3
   4  -5   3 105.820 11.4782   1
  -4   5  -3 99.1437 6.57779   1
  -4   5  -3 113.099 8.25121   2
  -5  -5  -3 15.7346 6.48746   1
  -5   5  -3 20.9706 2.99122   1
  -5   5  -3 24.4049 4.66568   2
  -5   5  -3 18.8910 3.80562   1
  -6  -5  -3 2.97817 6.06757   1
  -6   5  -3 17.9527 4.47213   2
  -7  -5  -3 121.901 14.6893   1
  -7   5  -3 87.8651 7.63934   2
  -8  -5  -3 1.81252 10.2860   1
  -8   5  -3 14.4998 3.98430   2
  -9  -5  -3 -4.7030 6.09192   1
   9   5   3 1.09285 7.26491   1
  -9   5  -3 0.21548 3.12874   2
 -10  -5  -3 5.45223 7.53622   1
  10   5   3 0.66213 4.59159   1
  10   5   3 -0.2873 4.59969   3
 -10   5  -3 -0.7570 3.30328   2
  11   5   3 1.90462 5.17769   1
  11   5   3 -0.4853 4.58302   3
 -11   5  -3 2.42724 3.25521   2
 -12  -5  -3 21.4043 5.28650   2
 -12   5  -3 17.7987 3.77800   2
 -13  -5  -3 27.0509 5.70686   2
  13   5   3 18.1566 5.63821   3
 -13   5  -3 21.4444 3.79475   2
 -14  -5  -3 11.2440 4.74031   2
  14   5   3 18.0755 5.92889   3
 -14   5  -3 9.55566 3.34947   2
 -15  -5  -3 5.15974 4.68522   2
 -15   5  -3 5.09806 3.05853   2
  15   5   3 13.3427 6.43318   3
 -16  -5  -3 10.6337 5.28516   2
  16   5   3 1.41415 6.35182   3
 -17  -5  -3 4.27768 4.92033   2
  17   5   3 14.3329 7.07696   3
  13   6  -3 4.11726 5.43780   3
  12   6  -3 3.49059 4.93297   3
  11  -6  -3 11.5850 3.22614   3
  11   6  -3 18.0759 5.77784   3
  10  -6  -3 14.9701 3.29806   3
  10   6  -3 22.7855 8.10090   3
   9  -6  -3 -0.0292 2.81357   3
   9   6  -3 0.80976 4.38251   3
   8  -6  -3 1.90007 3.02856   3
   8   6  -3 -2.7220 4.15698   3
   7  -6  -3 -4.2388 3.04536   3
   7   6  -3 0.37809 4.44357   3
   6  -6  -3 7.47460 3.53162   3
   6   6  -3 9.28429 4.25020   3
   5   6  -3 -0.9772 4.53553   1
   4   6  -3 27.8455 4.64705   1
   3   6  -3 22.4145 3.72290   1
   3   6  -3 30.0416 4.05572   1
   0  -6  -3 4.03003 2.89141   1
   0  -6   3 7.45581 2.82637   3
   0   6  -3 4.77903 4.55761   2
  -1  -6  -3 1.98863 3.73167   1
   1  -6   3 -2.6784 2.15220   3
  -1   6  -3 -0.1421 4.01867   2
   2  -6   3 8.33729 2.29309   3
  -2   6  -3 8.85949 4.10872   2
   3  -6   3 -1.4163 2.01918   3
  -3   6  -3 6.78317 4.70133   2
  -4   6  -3 15.7090 5.02282   2
  -5   6  -3 14.3997 4.82812   2
  -6   6  -3 4.84120 4.40555   2
  -7   6  -3 5.49280 4.50640   2
  -8   6  -3 -3.0515 3.60326   2
  -9   6  -3 3.45585 3.65328   2
 -12  -6  -3 -5.5803 7.16344   2
  25   0  -4 -1.2208 5.18835   3
  24   0  -4 -3.0833 9.09956   1
 -24   0   4 5.59569 23.7776   1
  24   0  -4 -1.2958 4.97141   3
  23   0  -4 163.997 17.8267   1
  22   0  -4 5.93838 7.83264   1
 -22   0   4 -7.3154 11.9166   1
  22   0  -4 3.58875 5.19048   3
  21   0  -4 0.67093 6.61693   1
  21   0  -4 3.67420 4.47975   3
 -21   0   4 -4.7038 9.07350   1
  20   0  -4 68.2981 7.31636   3
  20   0  -4 41.3992 9.90365   1
 -20   0   4 21.8865 9.85025   1
  19   0  -4 35.4803 9.14919   1
 -19   0   4 25.7922 9.33225   1
  19   0  -4 37.9436 5.46371   3
 -18   0   4 3.99364 8.12987   1
  18   0  -4 4.40855 4.32089   3
  18   0  -4 5.72587 6.01328   1
  17   0  -4 14.0066 4.92512   3
  17   0  -4 16.7792 6.79939   1
 -17   0   4 0.74453 6.80634   1
  16   0  -4 348.635 22.7966   1
  16   0  -4 383.365 16.2058   3
 -16   0   4 325.891 21.8725   1
  15   0  -4 280.783 19.2170   1
  15   0  -4 290.395 13.2636   3
 -15   0   4 253.982 18.6116   1
  14   0  -4 137.107 15.0062   1
 -14   0   4 130.462 13.0617   1
 -14   0   4 137.960 8.09283   3
 -13   0   4 9.84397 3.54065   3
 -13   0   4 14.7760 6.88936   1
  13   0  -4 17.4522 5.89897   1
  13   0  -4 13.6576 4.57551   3
  12   0  -4 144.489 11.3652   1
  12   0  -4 132.058 7.85633   3
 -12   0   4 129.280 11.7964   1
 -12   0   4 122.709 7.27580   3
  11   0  -4 253.050 11.2312   3
 -11   0   4 251.290 9.09009   2
 -11   0   4 239.504 10.9262   3
 -11   0   4 231.434 15.1057   1
  11   0  -4 255.105 15.2302   1
 -10   0   4 364.172 14.5525   3
 -10   0   4 362.505 13.0200   2
  10   0  -4 367.644 14.6598   3
 -10   0   4 336.718 18.9919   1
  10   0  -4 341.996 18.4147   1
  -9   0   4 815.347 29.8226   2
  -9   0   4 858.091 35.4384   1
  -9   0   4 798.299 30.9206   3
   9   0  -4 861.493 35.3324   1
   9   0  -4 807.156 31.0637   3
   9   0  -4 849.158 29.8576   2
  -8   0   4 427.058 14.5387   2
   8   0  -4 407.120 14.5539   2
  -8   0   4 396.282 19.5339   1
   8   0  -4 389.429 15.6915   3
  -8   0   4 360.953 15.5496   3
   8   0  -4 397.983 19.1802   1
  -7   0   4 882.604 33.4408   3
  -7   0   4 911.585 32.6212   2
   7   0  -4 912.412 33.5216   3
   7   0  -4 911.041 32.6525   2
  -7   0   4 913.647 36.9508   1
   7   0  -4 912.096 36.8256   1
  -6   0   4 4.12479 1.19682   2
   6   0  -4 6.16926 2.50262   3
   6   0  -4 9.19620 1.25733   2
  -6   0   4 12.3020 4.73931   1
  -6   0   4 7.87683 2.51059   3
   6   0  -4 1.03674 3.89715   1
   5   0  -4 822.062 29.7037   2
  -5   0   4 835.812 29.7052   2
  -5   0   4 780.133 33.1258   1
   5   0  -4 839.376 30.2913   3
   5   0  -4 835.453 33.0778   1
  -4   0   4 2336.33 91.7182   1
   4   0  -4 2580.03 90.9079   1
   3   0  -4 227.668 8.60382   2
  -3   0   4 194.990 12.0367   1
  -3   0   4 229.103 8.59083   2
   3   0  -4 240.355 11.6918   1
  -3   0   4 221.913 8.95599   3
   3   0  -4 227.289 9.03420   3
  -2   0   4 4213.78 158.951   1
   2   0  -4 4563.84 159.000   1
  -1   0   4 223.275 8.46580   2
   1   0  -4 212.051 8.44478   2
  -1   0   4 220.772 11.0059   1
   1   0  -4 224.395 10.9117   1
   1   0  -4 215.770 8.63615   3
   0   0  -4 158.848 6.37654   2
   0   0   4 159.506 8.85829   1
   0   0  -4 153.848 8.68915   1
   0   0   4 150.908 6.27253   2
   1   0   4 721.346 26.8976   2
  -1   0  -4 755.750 26.9583   2
  -1   0  -4 709.946 29.3035   1
   1   0   4 773.307 29.4436   1
   2   0   4 27.6128 2.54314   2
  -2   0  -4 25.7975 4.14354   1
  -2   0  -4 28.9223 2.53459   2
  -3   0  -4 2737.57 102.076   1
  -3   0  -4 2810.76 102.358   1
  -4   0  -4 2979.48 109.992   1
  -5   0  -4 2939.75 109.701   1
   5   0   4 2969.27 109.442   1
  -7   0  -4 192.094 7.65116   2
  -7   0  -4 177.262 12.5049   1
   7   0   4 189.280 11.8637   1
  -7   0  -4 167.880 9.23817   3
   7   0   4 165.238 7.44527   2
   7   0   4 179.324 7.67397   3
   8   0   4 411.668 15.6853   3
   8   0   4 408.809 15.4258   2
  -8   0  -4 412.695 15.4859   2
  -8   0  -4 394.985 15.6205   3
   8   0   4 403.830 20.1539   1
  -8   0  -4 403.655 20.7661   1
  -9   0  -4 14.5681 2.51802   3
  -9   0  -4 9.59210 5.43778   1
   9   0   4 14.7339 2.03084   2
   9   0   4 11.8882 4.97752   1
   9   0   4 16.7162 2.64587   3
  -9   0  -4 14.2204 2.13788   2
  10   0   4 3337.33 124.136   1
  10   0   4 3277.02 117.998   2
 -10   0  -4 3252.93 118.272   3
 -10   0  -4 3309.26 124.473   1
 -11   0  -4 1478.67 54.6255   3
  11   0   4 1468.67 60.7500   1
 -11   0  -4 1458.79 54.2655   2
  11   0   4 1506.32 54.6610   3
 -11   0  -4 1580.90 61.6090   1
  12   0   4 1733.13 69.7384   1
 -12   0  -4 1625.93 62.8781   2
  12   0   4 1737.70 62.8695   3
 -12   0  -4 1768.20 70.2921   1
 -12   0  -4 1762.78 62.8638   3
  13   0   4 42.4715 4.90582   3
 -13   0  -4 40.0054 5.16784   3
  13   0   4 36.6478 7.98435   1
 -13   0  -4 28.1010 8.33332   1
  14   0   4 -1.6483 2.71869   3
 -14   0  -4 0.90895 2.17012   2
  14   0   4 3.32854 5.65321   1
 -14   0  -4 -0.2369 6.29214   1
 -14   0  -4 1.29827 3.07147   3
  15   0   4 19.1960 3.56065   3
  15   0   4 15.3708 7.52401   1
 -15   0  -4 21.9775 4.00172   3
 -15   0  -4 16.0682 8.01337   1
 -16   0  -4 325.351 12.6424   2
 -16   0  -4 289.754 22.0919   1
  16   0   4 270.479 19.8772   1
  16   0   4 306.778 13.5144   3
 -16   0  -4 305.230 14.3693   3
 -17   0  -4 159.936 7.54801   2
  17   0   4 150.018 8.75126   3
 -17   0  -4 166.679 16.4387   1
  17   0   4 149.307 14.8997   1
  18   0   4 99.9823 13.4650   1
  18   0   4 115.750 7.68065   3
 -18   0  -4 102.838 6.08895   2
 -18   0  -4 115.424 14.8503   1
  19   0   4 0.04890 3.27776   3
 -19   0  -4 -2.1902 2.13609   2
 -19   0  -4 -5.9232 7.45587   1
  19   0   4 1.07790 7.22417   1
 -20   0  -4 24.0520 3.05236   2
 -20   0  -4 31.1764 12.2419   1
  20   0   4 23.9269 9.22254   1
  20   0   4 32.0614 4.87636   3
 -21   0  -4 82.4662 5.42854   2
 -21   0  -4 86.8647 5.59183   2
 -21   0  -4 77.0331 15.3681   1
  21   0   4 50.9610 11.6727   1
  21   0   4 76.7225 7.49267   3
 -22   0  -4 15.5898 2.71640   2
  22   0   4 19.1319 10.4994   1
 -22   0  -4 14.3802 14.1492   1
  22   0   4 13.8517 4.09764   3
  23   0   4 -2.1016 3.52209   3
  23   0   4 18.8403 10.5503   1
 -23   0  -4 -9.8985 16.1511   1
  24   0   4 -1.8552 6.13913   3
  24   0   4 -7.0775 18.4336   1
  25  -1  -4 3.13639 5.05757   3
  25   1  -4 4.50370 5.32096   3
  25   1  -4 -18.311 17.1385   1
 -24  -1   4 64.0309 18.7733   1
  24  -1  -4 60.3849 9.36524   3
  24   1  -4 23.7776 10.6009   1
  24   1  -4 85.6853 10.5242   3
  23  -1  -4 -8.5019 6.63166   1
 -23  -1   4 -2.1988 13.3047   1
  23  -1  -4 2.70152 4.64753   3
  23   1  -4 -2.0242 5.59304   3
  23   1  -4 -12.503 7.57633   1
 -23   1   4 8.56290 10.4357   1
 -22  -1   4 98.8792 16.7487   1
  22  -1  -4 77.0795 12.2029   1
  22   1  -4 54.7076 12.7122   1
 -22   1   4 79.5443 12.5320   1
  21  -1  -4 5.64617 10.7425   1
  21  -1  -4 10.5529 4.64466   3
 -21  -1   4 17.7214 9.90381   1
 -21   1   4 9.45268 7.82146   1
  21   1  -4 7.07337 8.08714   1
  21   1  -4 15.8973 5.84499   3
 -20  -1   4 -3.3466 7.60991   1
  20  -1  -4 10.1174 4.36105   3
  20   1  -4 8.16903 5.26814   3
 -20   1   4 2.00989 6.84533   1
  20   1  -4 0.00750 7.09341   1
  19  -1  -4 3.67980 3.97592   3
  19  -1  -4 -4.1757 4.87572   1
 -19  -1   4 14.9644 9.45576   1
 -19  -1   4 3.69724 1.47248   2
 -19  -1   4 3.85095 1.52208   2
 -19   1   4 16.5332 7.15475   1
  19   1  -4 3.83428 4.35485   3
  19   1  -4 9.96748 6.82427   1
 -18  -1   4 14.2770 1.86848   2
  18  -1  -4 1.04311 5.67523   1
 -18  -1   4 13.8340 1.94071   2
 -18  -1   4 7.51300 8.00825   1
  18  -1  -4 17.1654 4.69961   3
  18   1  -4 14.8552 4.82990   3
  18   1  -4 10.6165 6.75650   1
 -18   1   4 22.6450 7.04052   1
  17  -1  -4 16.5259 6.70542   1
 -17  -1   4 14.3586 2.01852   2
 -17  -1   4 10.5895 1.96227   2
 -17  -1   4 16.7044 8.17479   1
  17  -1  -4 11.4832 4.34171   3
 -17   1   4 26.2420 7.21297   1
  17   1  -4 10.0262 6.35396   1
  17   1  -4 17.1960 5.28099   3
  16  -1  -4 61.8659 9.61413   1
  16  -1  -4 72.9990 7.08717   3
 -16  -1   4 69.2604 4.25632   2
 -16  -1   4 57.5337 10.8505   1
  16   1  -4 80.7686 7.76682   3
 -16   1   4 77.7610 10.6849   1
  16   1  -4 59.4384 10.2144   1
  15  -1  -4 8.74883 3.74557   3
  15  -1  -4 10.7263 5.45442   1
 -15  -1   4 12.2809 1.99483   2
 -15  -1   4 12.0548 7.46726   1
 -15   1   4 6.67991 3.34481   3
 -15   1   4 15.4140 6.27581   1
  15   1  -4 14.9302 4.32506   3
  15   1  -4 -0.1707 5.47629   1
  14  -1  -4 1.86266 4.99178   1
 -14  -1   4 0.75689 6.50228   1
  14  -1  -4 2.71776 3.86096   3
 -14  -1   4 3.34499 1.75541   2
  14   1  -4 -1.9569 5.07609   1
 -14   1   4 3.90066 3.18676   3
  14   1  -4 3.14567 4.25356   3
 -14   1   4 11.6340 5.68073   1
  13  -1  -4 282.125 13.2787   3
 -13  -1   4 279.407 18.6261   1
 -13  -1   4 276.357 10.8111   2
 -13  -1   4 253.588 12.4748   3
  13  -1  -4 251.184 16.6583   1
  13   1  -4 254.314 17.4958   1
 -13   1   4 276.165 16.7855   1
 -13   1   4 267.116 12.2584   3
  13   1  -4 317.697 13.5196   3
 -12  -1   4 183.669 9.11321   3
 -12  -1   4 166.296 14.0887   1
  12  -1  -4 148.071 12.2404   1
 -12  -1   4 159.738 7.15124   2
  12  -1  -4 179.675 8.95806   3
 -12   1   4 156.512 12.3197   1
  12   1  -4 172.459 9.29403   3
 -12   1   4 167.774 8.51550   3
  12   1  -4 163.902 13.3204   1
  11  -1  -4 146.319 11.1648   1
 -11  -1   4 140.973 8.08871   3
  11  -1  -4 159.449 8.05674   3
 -11  -1   4 149.297 6.53767   2
 -11  -1   4 150.919 13.1300   1
 -11   1   4 154.861 11.6193   1
  11   1  -4 149.411 8.55892   3
 -11   1   4 150.422 7.79988   3
  11   1  -4 151.349 6.51804   2
  11   1  -4 165.285 12.5605   1
 -10  -1   4 139.563 7.29099   3
 -10  -1   4 141.666 6.03465   2
 -10  -1   4 129.068 12.4430   1
  10  -1  -4 138.095 10.2363   1
  10  -1  -4 131.601 7.31244   3
  10   1  -4 150.649 11.8124   1
 -10   1   4 131.533 7.07919   3
 -10   1   4 132.367 10.3831   1
  10   1  -4 138.989 5.98808   2
  10   1  -4 129.101 7.53732   3
  -9  -1   4 220.437 8.65681   2
   9  -1  -4 220.387 12.5535   1
   9  -1  -4 210.474 9.65394   3
  -9  -1   4 210.659 9.66462   3
  -9   1   4 221.182 12.6219   1
   9   1  -4 220.673 8.69011   2
  -9   1   4 206.435 9.52504   3
   9   1  -4 216.796 9.98676   3
   9   1  -4 213.930 14.4567   1
   8  -1  -4 18.5574 4.34359   1
   8  -1  -4 19.7483 1.40892   2
   8  -1  -4 21.3309 3.03000   3
  -8  -1   4 20.0677 2.01216   2
  -8  -1   4 23.4478 3.19233   3
  -8  -1   4 17.8308 6.10181   1
  -8   1   4 23.5013 2.96153   3
  -8   1   4 19.1864 4.54526   1
   8   1  -4 16.8376 3.13900   3
   8   1  -4 19.9548 2.02164   2
   8   1  -4 16.3626 8.26524   1
   7  -1  -4 911.338 34.3036   3
   7  -1  -4 937.580 36.8956   1
  -7  -1   4 915.104 34.4028   3
   7  -1  -4 920.952 33.3734   2
  -7  -1   4 912.099 33.7995   2
  -7  -1   4 979.525 39.0568   1
  -7   1   4 921.815 36.5299   1
   7   1  -4 944.109 33.8831   2
   7   1  -4 932.834 34.4837   3
   7   1  -4 940.526 38.8046   1
   6  -1  -4 609.358 22.9224   3
  -6  -1   4 642.846 27.3234   1
  -6  -1   4 592.528 22.4340   2
   6  -1  -4 607.630 25.0061   1
   6  -1  -4 606.474 22.0585   2
  -6  -1   4 610.214 22.9379   3
   6   1  -4 622.040 22.5137   2
   6   1  -4 589.373 26.9992   1
   6   1  -4 591.930 23.0263   3
  -6   1   4 627.361 24.7917   1
  -5  -1   4 1411.84 54.4732   1
  -5  -1   4 1383.47 50.5858   3
   5  -1  -4 1433.95 49.9922   2
   5  -1  -4 1440.68 52.5005   1
   5  -1  -4 1391.60 50.6113   3
  -5  -1   4 1400.79 50.2757   2
   5   1  -4 1398.94 50.6482   3
   5   1  -4 1441.39 50.3417   2
   5   1  -4 1178.15 60.5138   1
  -5   1   4 1419.78 52.0309   1
  -4  -1   4 1782.47 69.9843   3
   4  -1  -4 2003.95 71.6946   1
  -4  -1   4 2056.53 73.9755   1
   4  -1  -4 1934.63 70.1352   3
  -4   1   4 1963.28 71.1942   1
  -3  -1   4 309.951 15.0335   1
   3  -1  -4 291.135 12.7551   1
   3  -1  -4 283.083 10.9211   2
  -3  -1   4 279.394 11.1210   2
  -3  -1   4 292.422 11.2887   3
   3   1  -4 266.060 16.4413   1
   3   1  -4 291.981 11.3579   3
   3   1  -4 287.779 11.1811   2
  -3   1   4 295.022 12.3278   1
  -2  -1   4 2573.64 93.0616   1
   2  -1  -4 2469.04 91.0342   1
   2   1  -4 2400.38 95.2375   1
  -2   1   4 2572.33 90.6279   1
   1  -1  -4 5453.16 198.477   1
  -1  -1   4 5601.53 200.257   1
   0  -1   4 5131.91 188.175   1
   0  -1  -4 5246.96 186.704   1
  -1  -1  -4 13.6858 1.99565   2
   1  -1   4 7.87082 1.70425   2
  -1  -1  -4 11.1723 3.21916   1
   1  -1   4 8.43921 3.83410   1
  -1   1  -4 10.5190 1.38588   3
  -1   1  -4 10.8071 3.93171   1
  -1   1  -4 10.1993 1.78386   2
  -2  -1  -4 286.357 12.8116   1
  -2  -1  -4 213.898 12.1587   3
   2  -1   4 267.812 10.2099   2
  -2  -1  -4 257.600 10.2589   2
   2  -1   4 256.210 14.9642   1
  -2   1  -4 265.213 10.2501   2
  -2   1  -4 273.563 13.6590   1
  -3  -1  -4 432.213 17.0892   3
  -3  -1  -4 453.505 16.7961   2
   3  -1   4 452.999 16.6883   2
  -3  -1  -4 436.400 19.2916   1
   3  -1   4 465.107 20.2488   1
  -3   1  -4 450.534 16.7449   2
  -3   1  -4 450.497 16.1786   3
  -3   1  -4 445.826 20.2306   1
  -3   1  -4 407.089 21.8065   1
  -4  -1  -4 2679.73 97.1279   1
  -4  -1  -4 2582.62 94.1573   3
  -4   1  -4 2523.57 97.3147   1
  -4   1  -4 2652.01 97.5558   1
   4   1   4 2660.25 96.8935   1
  -5  -1  -4 18.1960 2.56443   2
  -5  -1  -4 14.1356 4.66133   1
   5  -1   4 21.8443 2.47966   2
  -5  -1  -4 18.8985 2.75967   3
  -5   1  -4 18.3864 2.20760   2
  -5   1  -4 21.5087 5.48395   1
  -5   1  -4 18.2437 4.78240   1
   5   1   4 9.86822 4.18924   1
   5   1   4 19.2954 2.70534   3
  -5   1  -4 20.3783 1.89822   3
  -6  -1  -4 1283.70 48.4362   3
  -6  -1  -4 1384.21 52.5802   1
   6  -1   4 1300.11 48.0094   2
  -6  -1  -4 1317.86 48.1747   2
  -6   1  -4 1399.79 52.5986   1
  -6   1  -4 1362.08 48.0922   2
  -6   1  -4 1290.97 52.0641   1
  -6   1  -4 1315.80 47.6522   3
   6   1   4 1287.93 48.4674   3
   6   1   4 1351.14 52.0420   1
  -7  -1  -4 430.515 17.1703   3
  -7  -1  -4 444.455 16.8310   2
  -7  -1  -4 443.092 21.6486   1
   7  -1   4 449.100 16.6347   2
  -7   1  -4 438.561 20.9295   1
  -7   1  -4 434.188 16.2555   3
   7   1   4 427.815 17.1819   3
  -7   1  -4 424.720 16.6438   2
   7   1   4 437.613 21.0511   1
  -7   1  -4 489.249 21.9636   1
  -8  -1  -4 755.504 28.2170   2
   8  -1   4 745.551 27.7519   3
   8  -1   4 797.019 33.2468   1
   8  -1   4 753.160 27.9906   2
  -8  -1  -4 747.620 28.5920   3
  -8  -1  -4 736.810 33.0956   1
  -8   1  -4 775.887 28.0780   2
  -8   1  -4 761.205 32.8361   1
   8   1   4 767.751 28.7003   3
  -8   1  -4 792.501 33.2758   1
   8   1   4 754.916 32.8171   1
  -8   1  -4 765.169 27.7642   3
  -9  -1  -4 21.1601 3.03336   3
   9  -1   4 20.6031 2.54299   3
  -9  -1  -4 14.7165 5.40702   1
   9  -1   4 18.2371 6.74910   1
   9  -1   4 24.4307 2.42362   2
   9   1   4 27.0978 5.80274   1
  -9   1  -4 23.4356 2.73881   3
  -9   1  -4 23.0702 2.41944   2
  -9   1  -4 20.5389 5.82571   1
   9   1   4 17.2235 2.99113   3
 -10  -1  -4 27.7725 3.25247   2
 -10  -1  -4 29.4155 7.46224   1
  10  -1   4 13.9061 6.66232   1
  10  -1   4 23.9458 2.89941   3
 -10  -1  -4 30.4804 3.72502   3
  10  -1   4 24.4059 2.41811   2
 -10   1  -4 23.7037 6.53443   1
 -10   1  -4 23.8037 3.01777   3
  10   1   4 22.8269 6.01257   1
 -10   1  -4 28.4679 3.31873   2
  10   1   4 29.7201 3.60354   3
 -11  -1  -4 838.376 38.0772   1
  11  -1   4 838.911 30.9393   2
  11  -1   4 849.735 30.9392   3
 -11  -1  -4 807.897 31.8204   2
  11  -1   4 804.791 37.8716   1
 -11  -1  -4 859.160 31.9049   3
 -11   1  -4 843.108 30.9694   2
 -11   1  -4 849.434 37.8941   1
  11   1   4 861.582 31.9609   3
 -11   1  -4 829.785 30.9980   3
  11   1   4 858.856 37.7395   1
 -12  -1  -4 181.104 15.9452   1
 -12  -1  -4 152.509 8.11891   2
  12  -1   4 166.381 15.9575   1
  12  -1   4 165.253 7.49872   3
 -12  -1  -4 168.684 10.4755   3
  12   1   4 159.083 13.4462   1
  12   1   4 162.107 9.42735   3
 -12   1  -4 166.140 7.55773   3
 -12   1  -4 169.433 14.3148   1
 -12   1  -4 150.498 7.46246   2
  13  -1   4 314.409 20.7001   1
  13  -1   4 344.590 13.5700   3
 -13  -1  -4 349.658 21.8258   1
 -13  -1  -4 353.752 13.9199   2
  13  -1   4 343.094 13.5510   2
 -13  -1  -4 324.950 14.6703   3
 -13   1  -4 328.485 20.8787   1
  13   1   4 329.815 20.2810   1
 -13   1  -4 329.646 13.5638   3
 -13   1  -4 344.894 13.4462   2
  14  -1   4 81.9406 4.76053   2
  14  -1   4 83.0509 11.1397   1
 -14  -1  -4 78.3581 5.82083   2
 -14  -1  -4 105.230 13.1582   1
  14  -1   4 83.1885 5.28769   3
 -14   1  -4 90.4019 12.2246   1
 -14   1  -4 80.6886 5.43510   3
  14   1   4 88.2138 11.6921   1
  14   1   4 82.0769 6.85192   3
 -15  -1  -4 5.26495 7.54337   1
  15  -1   4 3.48649 5.50857   1
 -15  -1  -4 4.05277 2.68447   2
  15  -1   4 1.02760 2.33208   3
 -15   1  -4 -1.5686 7.06440   1
  15   1   4 4.63993 5.71040   1
 -15   1  -4 1.36205 2.56036   3
  15   1   4 4.30385 3.30539   3
  16  -1   4 25.1241 3.33431   3
  16  -1   4 14.8805 6.68025   1
 -16  -1  -4 15.8420 8.50140   1
 -16  -1  -4 19.5796 3.06521   2
 -16   1  -4 17.6516 3.15798   3
  16   1   4 13.3853 3.70437   3
  16   1   4 24.9321 7.90275   1
 -16   1  -4 26.4957 12.7558   1
 -16   1  -4 14.4104 2.75701   2
  17  -1   4 27.3496 8.33459   1
 -17  -1  -4 30.3439 3.62629   2
 -17  -1  -4 38.7088 10.2008   1
  17   1   4 37.0031 9.56247   1
 -17   1  -4 34.9782 3.25083   2
  17   1   4 28.0263 4.73031   3
 -17   1  -4 46.6455 7.09963   3
 -17   1  -4 35.1719 9.84762   1
 -18  -1  -4 34.2883 3.87090   2
 -18  -1  -4 38.3624 3.90295   2
  18  -1   4 24.3751 7.96257   1
 -18  -1  -4 20.9176 9.64215   1
 -18   1  -4 36.9954 10.6190   1
  18   1   4 40.3483 9.40666   1
 -18   1  -4 35.0084 4.52858   3
 -18   1  -4 35.4980 4.14653   2
  18   1   4 37.2554 5.33497   3
 -19  -1  -4 12.8738 14.7071   1
 -19  -1  -4 21.0761 3.58283   2
 -19  -1  -4 12.3886 3.12216   2
  19  -1   4 16.5946 8.42907   1
  19  -1   4 10.3031 3.22452   3
  19   1   4 10.4326 4.10306   3
 -19   1  -4 2.85059 8.36992   1
 -19   1  -4 12.8169 2.68084   2
  19   1   4 1.18955 7.29286   1
 -20  -1  -4 0.84817 2.92007   2
  20  -1   4 3.22104 3.08878   3
  20  -1   4 6.08002 7.40867   1
 -20  -1  -4 -1.9305 5.81092   2
 -20  -1  -4 13.0945 10.4110   1
 -20   1  -4 5.58445 10.4505   1
  20   1   4 -1.1964 6.54469   1
  20   1   4 1.56952 4.01768   3
  21  -1   4 30.7279 10.4218   1
 -21  -1  -4 47.2402 13.3875   1
 -21  -1  -4 32.5069 3.82306   2
 -21  -1  -4 51.3473 5.31973   2
  21  -1   4 40.8186 4.74064   3
  21   1   4 25.0557 10.5667   1
 -21   1  -4 36.0670 12.6927   1
  21   1   4 43.1696 6.35009   3
 -22  -1  -4 30.9736 14.7583   1
  22  -1   4 2.48168 3.24629   3
 -22  -1  -4 4.88479 2.81207   2
 -22   1  -4 5.77735 2.03664   2
 -22   1  -4 14.9054 13.4400   1
  22   1   4 -7.4866 13.5828   1
  22   1   4 7.66828 4.83685   3
  23  -1   4 14.5139 3.86441   3
  23  -1   4 21.8152 10.6932   1
 -23  -1  -4 26.1787 18.6176   1
 -23  -1  -4 22.1086 3.31817   2
  23   1   4 20.6355 5.16310   3
  23   1   4 7.91934 12.8048   1
 -24  -2   4 6.52237 29.6789   1
  24   2  -4 5.94888 5.97197   3
  24   2  -4 5.44755 10.9900   1
  23  -2  -4 16.8153 5.05375   3
 -23  -2   4 -3.6125 14.9664   1
  23   2  -4 19.0866 6.50846   3
 -23   2   4 14.7872 12.4580   1
  22  -2  -4 6.37274 4.34326   3
  22  -2  -4 10.8168 7.51207   1
 -22  -2   4 2.76158 2.58740   2
 -22  -2   4 27.9382 13.9046   1
  22   2  -4 8.87157 8.58914   1
 -22   2   4 6.41359 9.87319   1
  22   2  -4 -1.4401 5.39444   3
  21  -2  -4 7.01124 4.22671   3
 -21  -2   4 10.4416 3.18817   2
  21  -2  -4 4.77088 7.01586   1
 -21  -2   4 7.07246 2.62725   2
 -21  -2   4 -4.5103 12.8391   1
  21   2  -4 20.8664 9.02958   3
  21   2  -4 -6.8950 7.40118   1
 -21   2   4 11.3166 8.23204   1
 -20  -2   4 0.67655 2.63925   2
  20  -2  -4 1.52522 4.01696   3
  20  -2  -4 -2.8478 5.64915   1
 -20  -2   4 -3.9758 2.26738   2
 -20  -2   4 -9.1864 10.4644   1
  20   2  -4 -0.9792 5.22197   3
 -20   2   4 16.0026 7.85855   1
  20   2  -4 -4.3061 6.55064   1
 -19  -2   4 87.2197 5.74256   2
 -19  -2   4 55.9760 12.8355   1
  19  -2  -4 54.6532 9.83860   1
  19  -2  -4 89.3807 7.83881   3
 -19  -2   4 82.2194 5.70585   2
  19   2  -4 90.8185 9.41053   3
 -19   2   4 71.8452 10.5042   1
  19   2  -4 62.6358 11.8160   1
  18  -2  -4 47.5311 9.05440   1
  18  -2  -4 71.1120 7.39255   3
 -18  -2   4 64.5573 13.6603   1
 -18  -2   4 76.9911 5.64006   2
  18   2  -4 86.4970 8.87368   3
 -18   2   4 81.9493 11.3519   1
  18   2  -4 69.0546 11.7743   1
 -17  -2   4 26.5191 10.3053   1
  17  -2  -4 16.0387 4.20932   3
  17  -2  -4 14.9832 6.21938   1
 -17  -2   4 9.86066 2.80867   2
 -17   2   4 14.7718 6.68171   1
  17   2  -4 14.1178 4.92142   3
  17   2  -4 1.66560 7.45902   1
  16  -2  -4 54.2404 8.78631   1
 -16  -2   4 42.0443 10.8306   1
  16  -2  -4 51.5963 5.40511   3
 -16  -2   4 51.0478 5.12485   2
  16   2  -4 55.2903 6.29807   3
 -16   2   4 48.7295 8.24434   1
  16   2  -4 38.5640 9.31570   1
  15  -2  -4 74.3747 7.69591   3
  15  -2  -4 72.6204 10.0036   1
 -15  -2   4 71.4406 5.59572   2
 -15  -2   4 59.8450 12.0831   1
 -15   2   4 86.0915 9.82586   1
  15   2  -4 62.2294 10.4652   1
  15   2  -4 90.2656 7.84191   3
 -14  -2   4 4.28876 2.42849   2
 -14  -2   4 7.96622 7.47905   1
  14  -2  -4 5.95527 3.51070   3
  14  -2  -4 0.61492 4.60138   1
 -14   2   4 9.78760 5.20669   1
  14   2  -4 -2.1134 5.31139   1
  14   2  -4 0.90812 3.87161   3
  13  -2  -4 35.3460 6.74597   1
 -13  -2   4 31.3883 8.87810   1
  13  -2  -4 36.8736 5.07419   3
 -13  -2   4 39.5786 4.58381   2
  13   2  -4 55.2969 6.70500   3
  13   2  -4 29.9389 7.96194   1
 -13   2   4 45.4821 6.80208   1
 -12  -2   4 91.9277 5.71347   2
  12  -2  -4 75.1441 8.78683   1
 -12  -2   4 86.6174 12.0770   1
  12  -2  -4 86.8150 6.37516   3
  12   2  -4 92.2825 7.52689   3
  12   2  -4 83.0233 10.7655   1
 -12   2   4 88.5958 8.80258   1
 -11  -2   4 53.2433 5.92891   3
 -11  -2   4 52.0497 9.66808   1
  11  -2  -4 58.2728 5.42236   3
 -11  -2   4 51.1874 4.71777   2
  11  -2  -4 41.8772 6.49561   1
  11   2  -4 42.8303 8.28405   1
 -11   2   4 43.9356 6.07760   1
  11   2  -4 48.9395 4.43597   2
  10  -2  -4 631.277 23.1835   2
  10  -2  -4 672.225 24.6711   3
 -10  -2   4 669.103 31.2959   1
  10  -2  -4 647.702 27.7408   1
 -10  -2   4 671.880 24.3138   2
  10  -2  -4 638.738 23.1955   2
 -10   2   4 654.299 26.4942   1
  10   2  -4 626.811 30.3587   1
  10   2  -4 581.041 25.0504   2
   9  -2  -4 229.911 9.89770   3
  -9  -2   4 187.695 14.8821   1
  -9  -2   4 217.146 9.51972   2
  -9  -2   4 222.724 10.2489   3
   9  -2  -4 213.740 12.1581   1
   9  -2  -4 216.407 8.41243   2
   9  -2  -4 216.590 8.40145   2
   9   2  -4 231.642 15.5556   1
   9   2  -4 230.926 10.5419   3
  -9   2   4 237.337 11.0757   1
   8  -2  -4 69.7769 3.58475   2
   8  -2  -4 81.3509 5.18021   3
  -8  -2   4 80.6891 5.69486   3
   8  -2  -4 78.0371 7.33278   1
  -8  -2   4 70.1439 4.92409   2
  -8  -2   4 80.1341 9.69907   1
   8  -2  -4 73.2151 3.62861   2
   8   2  -4 73.4421 4.94062   2
   8   2  -4 80.2643 9.04423   1
  -8   2   4 78.5961 5.38111   1
   8   2  -4 79.6165 5.82225   3
  -7  -2   4 622.187 27.9508   1
   7  -2  -4 584.591 21.9959   3
   7  -2  -4 560.308 21.1797   2
  -7  -2   4 576.577 22.2105   3
  -7  -2   4 591.605 23.9339   2
   7  -2  -4 569.308 21.1590   2
   7  -2  -4 576.772 26.3281   1
  -7   2   4 572.811 21.5339   1
   7   2  -4 569.499 26.7695   1
   7   2  -4 569.048 22.2155   3
   7   2  -4 579.478 21.8724   2
   6  -2  -4 110.343 4.91073   2
  -6  -2   4 129.681 8.11793   2
  -6  -2   4 98.7619 9.88223   1
  -6  -2   4 103.614 6.06754   3
   6  -2  -4 105.552 6.66755   1
   6  -2  -4 109.003 4.88818   2
   6  -2  -4 117.775 5.98515   3
   6   2  -4 98.4984 5.70327   2
   6   2  -4 116.834 10.3132   1
   6   2  -4 109.783 6.21118   3
  -5  -2   4 104.771 5.85068   2
  -5  -2   4 109.279 5.84794   3
  -5  -2   4 115.510 10.5754   1
   5  -2  -4 99.7766 4.88901   2
   5  -2  -4 113.248 6.24779   1
   5  -2  -4 102.513 4.93068   2
   5   2  -4 108.163 5.70632   2
   5   2  -4 109.759 9.44018   1
   5   2  -4 106.698 5.91637   3
   4  -2  -4 469.212 17.4337   2
  -4  -2   4 448.555 17.8156   2
   4  -2  -4 454.597 17.3684   2
  -4  -2   4 465.276 17.8128   3
   4  -2  -4 490.370 18.1973   1
  -4  -2   4 467.265 22.2211   1
   4   2  -4 482.651 22.2770   1
   4   2  -4 468.041 17.8733   2
   4   2  -4 442.114 17.7903   3
   3  -2  -4 134.056 7.20951   1
  -3  -2   4 150.604 7.37798   2
  -3  -2   4 158.228 11.4969   1
   3   2  -4 157.780 7.28871   3
   3   2  -4 160.566 11.1824   1
   3   2  -4 181.260 7.64979   2
  -2  -2   4 2041.05 74.9034   1
   2  -2  -4 1967.94 70.9158   1
  -2  -2   4 1969.44 70.4578   3
  -2  -2   4 1951.11 70.6736   2
   2   2  -4 1877.31 70.4441   3
   2   2  -4 1943.84 74.4210   1
   2   2  -4 1967.21 70.7426   2
  -1  -2   4 27.3511 6.28900   1
  -1  -2   4 25.2258 2.99379   2
   1  -2  -4 28.4933 3.78624   1
  -1  -2   4 29.0326 3.03635   3
   1   2  -4 24.0246 2.95348   3
   1   2  -4 20.4410 2.72478   2
   1   2  -4 22.4513 5.42409   1
   0  -2  -4 1385.72 52.1423   3
   0  -2   4 1454.09 55.8093   1
   0  -2  -4 1474.65 52.9480   1
   0  -2   4 1458.59 52.0088   2
   0  -2   4 1426.47 51.4772   3
   0   2  -4 1454.53 55.5550   1
   0   2  -4 1401.41 51.4840   3
   0   2  -4 1411.53 52.0062   2
  -1  -2  -4 -1.0055 2.63460   1
   1  -2   4 0.97264 3.91691   1
   1  -2   4 0.66805 1.85104   2
   1  -2   4 2.05672 1.25081   3
  -1  -2  -4 -0.4586 2.21993   3
  -1   2  -4 -2.2215 1.96223   2
  -1   2  -4 2.52403 1.21475   3
  -1   2  -4 -0.2567 3.87435   1
  -2  -2  -4 19.1890 3.82200   1
   2  -2   4 20.4586 5.33451   1
  -2  -2  -4 24.3321 3.29545   3
  -2  -2  -4 24.2648 2.75038   2
   2  -2   4 17.3793 2.39135   2
  -2   2  -4 18.1024 4.50491   1
  -2   2  -4 20.4384 1.54793   3
  -2   2  -4 19.2666 2.40269   2
   3  -2   4 20.3468 4.77451   1
  -3  -2  -4 15.1412 2.74198   3
   3  -2   4 10.4179 2.02741   2
  -3  -2  -4 14.8381 3.90607   1
  -3  -2  -4 7.39557 2.23226   2
  -3   2  -4 18.0094 4.46811   1
  -3   2  -4 18.0566 2.56044   2
  -4  -2  -4 1537.30 59.5030   1
   4  -2   4 1509.67 56.3690   2
   4  -2   4 1527.09 60.2690   1
  -4  -2  -4 1601.19 56.8885   3
  -4   2  -4 1576.35 56.4508   2
  -4   2  -4 1601.28 60.4272   1
   4   2   4 1550.71 58.9577   1
  -5  -2  -4 724.241 28.9350   2
  -5  -2  -4 789.161 29.3273   3
  -5  -2  -4 781.810 32.4149   1
   5  -2   4 775.993 28.7704   2
  -5   2  -4 794.658 33.0064   1
   5   2   4 788.950 29.3832   3
  -5   2  -4 769.252 28.7773   2
   5   2   4 800.456 31.9246   1
  -6  -2  -4 1456.71 53.7662   2
  -6  -2  -4 1462.64 53.9038   3
  -6  -2  -4 1476.71 57.7181   1
   6  -2   4 1421.05 53.6639   2
   6   2   4 1492.72 57.0842   1
  -6   2  -4 1450.33 57.6238   1
  -6   2  -4 1518.12 53.3902   2
   6   2   4 1481.14 53.9752   3
  -7  -2  -4 85.6384 6.09744   2
  -7  -2  -4 102.437 9.85806   1
  -7  -2  -4 99.2420 6.34050   3
  -7   2  -4 101.135 5.50225   2
  -7   2  -4 100.987 8.86195   1
   7   2   4 105.099 9.02558   1
   7   2   4 109.145 6.55206   3
  -8  -2  -4 53.7296 5.09809   3
  -8  -2  -4 47.8573 4.57590   2
  -8  -2  -4 72.2824 9.41940   1
   8  -2   4 44.1737 4.38875   2
  -8   2  -4 62.9753 4.28018   2
   8   2   4 54.5193 7.49685   1
  -8   2  -4 55.0074 7.52590   1
   8   2   4 64.3940 6.79374   3
   9  -2   4 -0.4617 1.91900   2
  -9  -2  -4 8.51914 3.25514   3
  -9  -2  -4 2.72856 5.64396   1
  -9  -2  -4 -2.3178 2.20917   2
   9   2   4 -3.4635 2.99115   3
  -9   2  -4 2.07378 4.19350   1
   9   2   4 -1.5881 4.41786   1
  -9   2  -4 0.35385 2.11109   2
 -10  -2  -4 143.961 8.46190   3
 -10  -2  -4 162.578 8.03825   2
  10  -2   4 161.175 7.16810   2
 -10  -2  -4 179.197 14.5296   1
  10   2   4 159.688 12.1671   1
 -10   2  -4 152.202 12.4645   1
 -10   2  -4 147.735 8.36479   2
  10   2   4 158.262 13.1323   3
 -11  -2  -4 592.010 22.8243   2
  11  -2   4 574.778 22.1595   2
 -11  -2  -4 593.319 30.1775   1
  11   2   4 598.467 23.6941   3
 -11   2  -4 592.806 28.2057   1
  11   2   4 592.462 28.8213   1
 -12  -2  -4 4.58632 6.93458   1
  12  -2   4 5.13829 2.17568   2
 -12  -2  -4 5.19198 3.18638   2
  12   2   4 1.56686 5.65948   1
  12   2   4 10.5159 4.18160   3
 -12   2  -4 6.95154 1.62115   3
 -12   2  -4 -5.7005 7.80800   1
 -13  -2  -4 92.7269 12.6416   1
  13  -2   4 88.5539 4.34245   3
  13  -2   4 90.7035 5.14617   2
 -13  -2  -4 93.3896 6.60700   2
  13  -2   4 85.9084 10.7931   1
  13   2   4 90.3543 7.50625   3
  13   2   4 102.968 17.5965   1
 -13   2  -4 88.2278 4.38749   3
 -13   2  -4 83.3385 5.86768   2
 -13   2  -4 68.6005 13.1973   1
 -13   2  -4 90.0915 11.4045   1
  14  -2   4 9.29993 1.91914   3
 -14  -2  -4 10.6381 3.17671   2
 -14  -2  -4 10.1749 3.44563   2
  14  -2   4 5.23092 6.09455   1
 -14  -2  -4 19.4118 11.9424   1
  14  -2   4 10.0239 2.20054   2
 -14   2  -4 6.60567 2.43892   2
  14   2   4 7.95263 3.94003   3
 -14   2  -4 6.79110 6.54721   1
  14   2   4 1.95891 6.14624   1
 -14   2  -4 5.54489 7.52049   1
 -14   2  -4 12.0415 1.98263   3
  15  -2   4 130.550 6.25299   2
  15  -2   4 122.669 5.92698   3
 -15  -2  -4 125.775 7.73190   2
 -15  -2  -4 142.739 16.5910   1
 -15  -2  -4 100.965 11.9584   2
 -15   2  -4 126.048 15.2095   1
  15   2   4 146.134 9.13003   3
 -15   2  -4 131.448 12.6593   1
  15   2   4 151.985 13.8395   1
 -15   2  -4 125.119 6.64842   2
  16  -2   4 34.5118 3.35849   3
  16  -2   4 35.1091 3.41964   2
 -16  -2  -4 41.1720 4.58854   2
 -16  -2  -4 35.3924 3.98742   2
  16  -2   4 31.2612 10.0484   1
 -16  -2  -4 24.4915 9.47095   1
 -16   2  -4 30.4012 8.32018   1
  16   2   4 36.3295 8.83110   1
 -16   2  -4 27.3529 3.19366   3
 -16   2  -4 23.2533 8.48991   1
  16   2   4 29.5172 4.92370   3
 -16   2  -4 34.8044 3.36534   2
  17  -2   4 0.72590 2.02897   3
  17  -2   4 -6.1053 5.49135   1
 -17  -2  -4 2.88014 3.29161   2
 -17  -2  -4 -1.7371 3.09551   2
  17  -2   4 0.34960 1.71256   2
 -17  -2  -4 -4.4891 7.50210   1
 -17   2  -4 0.74647 2.45195   2
 -17   2  -4 9.39117 6.86743   1
 -17   2  -4 0.63234 7.39477   1
  17   2   4 1.04478 6.16182   1
 -17   2  -4 0.63076 1.81589   3
  17   2   4 6.20399 4.08396   3
  18  -2   4 22.4554 2.77749   3
  18  -2   4 23.5376 7.40873   1
 -18  -2  -4 12.5437 10.7241   1
 -18  -2  -4 23.6673 4.05088   2
 -18   2  -4 21.7209 2.64987   3
 -18   2  -4 17.0800 8.77345   1
  18   2   4 16.1705 8.40017   1
  18   2   4 33.9372 6.14269   3
 -19  -2  -4 9.06786 9.61585   1
 -19  -2  -4 10.9649 3.76130   2
  19  -2   4 8.96993 2.43102   3
  19  -2   4 6.25391 6.97978   1
  19   2   4 7.75963 4.55920   3
 -19   2  -4 7.63160 9.13794   1
 -19   2  -4 6.04510 2.16376   3
 -19   2  -4 6.96578 6.96268   1
  19   2   4 11.6610 8.54260   1
 -20  -2  -4 4.52569 3.40028   2
  20  -2   4 -7.2107 7.46239   1
 -20  -2  -4 -13.856 9.15530   1
  20  -2   4 -1.9130 2.12717   3
  20   2   4 -7.2124 8.30145   1
 -20   2  -4 1.29885 8.11467   1
  20   2   4 4.31823 5.00048   3
 -20   2  -4 -1.4066 1.95188   2
 -21  -2  -4 8.01917 13.3068   1
 -21  -2  -4 10.9270 3.59212   2
  21  -2   4 7.63264 8.66587   1
  21   2   4 7.27791 5.14304   3
 -21   2  -4 8.96167 1.83436   2
 -21   2  -4 -7.5490 13.8901   1
  21   2   4 8.10908 8.81209   1
 -22  -2  -4 11.6269 3.66150   2
  22   2   4 14.4983 5.88943   3
 -23  -2  -4 31.2731 18.1240   1
 -23  -2  -4 11.0295 6.74182   2
  23   2   4 2.51682 5.03828   3
 -23  -3   4 -0.6979 3.24441   2
 -23  -3   4 11.2505 20.7328   1
  23  -3  -4 -3.3058 3.40851   3
  23   3  -4 2.78287 6.01603   3
 -22  -3   4 15.4666 3.79770   2
 -22  -3   4 23.7235 19.0973   1
  22  -3  -4 10.6443 4.25060   3
 -22   3   4 2.29774 8.99919   1
  22   3  -4 7.85264 6.30403   3
  21  -3  -4 4.36119 7.29122   1
 -21  -3   4 17.1510 12.8457   1
 -21  -3   4 0.18482 3.41553   2
  21  -3  -4 -2.7364 3.58620   3
  21   3  -4 1.16212 5.92723   3
  21   3  -4 2.60786 9.68029   1
 -21   3   4 -8.4488 7.20417   1
 -20  -3   4 6.37998 12.0431   1
  20  -3  -4 17.1074 7.91075   1
  20  -3  -4 32.1140 4.96510   3
  20   3  -4 49.7087 8.17082   3
  20   3  -4 34.4950 16.7488   1
 -20   3   4 17.1899 7.54025   1
  19  -3  -4 -7.1955 6.37976   1
  19  -3  -4 3.22412 3.93308   3
 -19  -3   4 -1.1874 11.4139   1
  19   3  -4 12.4432 8.85524   1
  19   3  -4 15.4433 9.13574   3
 -19   3   4 -3.6173 7.04620   1
  18  -3  -4 15.5400 4.15214   3
 -18  -3   4 13.1669 10.6654   1
  18  -3  -4 19.4287 6.43335   1
 -18  -3   4 21.7343 3.76726   2
  18   3  -4 8.58788 5.44944   3
  18   3  -4 3.50750 8.09609   1
 -18   3   4 7.49386 4.52589   1
  17  -3  -4 19.4999 6.21915   1
 -17  -3   4 19.1526 9.79696   1
  17  -3  -4 10.3591 4.05678   3
 -17  -3   4 7.93261 3.25269   2
  17   3  -4 3.20593 6.92627   1
 -17   3   4 7.26792 6.65025   1
  17   3  -4 5.58370 5.02127   3
 -17   3   4 3.59993 3.98949   1
 -16  -3   4 32.7488 4.28586   2
 -16  -3   4 25.8624 10.9979   1
  16  -3  -4 34.4028 4.74690   3
  16  -3  -4 18.5931 6.30080   1
 -16   3   4 25.4537 5.32694   1
  16   3  -4 39.9571 6.44767   3
 -16   3   4 20.4123 4.65225   1
  16   3  -4 16.8769 7.70062   1
  15  -3  -4 15.9548 5.95391   1
 -15  -3   4 3.75945 8.99081   1
  15  -3  -4 15.0953 4.08507   3
 -15  -3   4 13.1445 6.68522   2
 -15   3   4 13.3682 4.36085   1
 -15   3   4 13.5146 3.89166   1
  15   3  -4 12.6091 4.88281   3
  15   3  -4 12.1009 7.34310   1
 -14  -3   4 92.7499 20.3682   1
  14  -3  -4 103.880 10.8102   1
  14  -3  -4 115.546 8.49924   3
 -14  -3   4 130.761 7.79460   2
 -14   3   4 107.318 7.27507   1
  14   3  -4 105.148 9.21032   3
 -14   3   4 102.082 7.59833   1
  14   3  -4 105.895 14.0397   1
 -13  -3   4 30.1462 9.78627   1
 -13  -3   4 31.2008 4.03116   2
  13  -3  -4 27.2563 4.61677   3
  13  -3  -4 29.4248 6.33535   1
 -13   3   4 21.5944 3.19695   1
 -13   3   4 28.7089 3.88630   1
  13   3  -4 24.4231 7.86644   1
  13   3  -4 18.7431 4.83515   3
  12  -3  -4 67.3777 3.52440   2
  12  -3  -4 70.6803 3.55912   2
  12  -3  -4 64.9946 6.60256   3
 -12  -3   4 82.2935 6.26923   2
 -12  -3   4 60.0092 11.8481   1
  12  -3  -4 62.6106 8.10794   1
  12   3  -4 62.4934 15.7598   1
  12   3  -4 73.4462 7.54109   3
  11  -3  -4 83.9235 8.41408   1
  11  -3  -4 92.9684 4.46436   2
  11  -3  -4 87.6589 6.32294   3
 -11  -3   4 93.2166 6.69901   2
 -11  -3   4 83.4173 12.3788   1
  11  -3  -4 87.1942 4.41761   2
  11   3  -4 81.9251 6.25017   2
  11   3  -4 108.987 7.92410   3
  11   3  -4 76.5064 10.5921   1
 -10  -3   4 19.6806 8.11390   1
 -10  -3   4 12.7877 3.10300   2
  10  -3  -4 15.1062 4.28917   1
  10  -3  -4 11.0963 3.11452   3
  10  -3  -4 12.8954 1.92604   2
  10  -3  -4 12.6337 1.95755   2
  10   3  -4 8.68608 2.79171   2
  10   3  -4 7.29278 6.32577   1
  10   3  -4 17.0395 3.96663   3
   9  -3  -4 327.691 12.9574   2
  -9  -3   4 347.443 14.2365   2
   9  -3  -4 330.928 13.9867   3
  -9  -3   4 330.142 14.6680   3
  -9  -3   4 369.592 22.1505   1
   9  -3  -4 314.803 15.5627   1
   9   3  -4 342.469 14.2062   2
   9   3  -4 332.139 20.1058   1
  -8  -3   4 13.4551 6.98267   1
  -8  -3   4 10.0402 3.16337   2
   8  -3  -4 8.45158 1.95165   2
   8  -3  -4 3.22908 2.75321   3
   8  -3  -4 9.21352 3.24605   1
  -8  -3   4 1.85475 3.89628   3
   8   3  -4 13.5676 3.23439   2
   8   3  -4 9.17169 3.71290   3
   8   3  -4 12.8570 6.37956   1
  -7  -3   4 17.8907 3.59040   3
  -7  -3   4 19.6535 3.03549   2
   7  -3  -4 24.4173 2.51441   2
   7  -3  -4 22.9829 3.39110   3
  -7  -3   4 16.3005 6.40105   1
   7  -3  -4 21.1746 3.30633   1
   7   3  -4 29.4737 3.79407   2
   7   3  -4 27.1088 6.90051   1
   7   3  -4 24.0872 4.07669   3
  -6  -3   4 54.5014 8.54263   1
  -6  -3   4 67.9381 5.72393   3
   6  -3  -4 50.3962 4.30992   1
  -6  -3   4 64.9647 5.62572   2
   6  -3  -4 69.8389 4.48842   2
   6   3  -4 75.2452 5.80885   3
   6   3  -4 69.1009 8.79097   1
   6   3  -4 70.5258 5.61594   2
  -5  -3   4 673.353 25.8572   2
  -5  -3   4 686.458 25.8283   3
  -5  -3   4 710.211 31.9362   1
   5   3  -4 656.254 25.7606   3
   5   3  -4 663.898 30.5491   1
   5   3  -4 683.587 25.9344   2
   4  -3  -4 402.672 16.0757   2
  -4  -3   4 401.077 16.3715   3
  -4  -3   4 418.015 16.5869   2
  -4  -3   4 431.297 22.1999   1
   4   3  -4 416.722 21.0293   1
   4   3  -4 429.441 16.6866   2
   4   3  -4 405.217 16.3522   3
  -3  -3   4 13.5826 5.59415   1
   3  -3  -4 16.6278 2.45218   2
  -3  -3   4 20.7723 2.90026   3
   3  -3  -4 19.9552 2.98372   3
  -3  -3   4 17.2839 3.01283   2
   3   3  -4 17.8363 3.07707   2
   3   3  -4 21.3208 5.35653   1
   3   3  -4 16.8642 2.65922   3
  -2  -3   4 198.146 8.65356   3
   2  -3  -4 193.001 9.10801   3
  -2  -3   4 192.965 13.0271   1
   2  -3  -4 207.662 8.95049   2
  -2  -3   4 199.155 9.25823   2
   2   3  -4 198.374 8.59462   3
   2   3  -4 200.063 12.9934   1
   2   3  -4 210.602 9.39934   2
  -1  -3   4 66.8371 5.08943   2
   1  -3  -4 61.5880 5.10687   3
  -1  -3   4 72.3869 9.08288   1
   1  -3  -4 68.6311 4.67280   1
   1  -3  -4 69.3377 4.96498   2
   1   3  -4 62.2393 5.35707   2
   1   3  -4 71.7843 4.30404   3
   1   3  -4 84.1260 8.43460   1
   0  -3   4 2541.45 94.4553   1
   0  -3   4 2458.61 89.6891   2
   0  -3  -4 2467.00 89.7091   2
   0  -3  -4 2439.56 89.8786   3
   0  -3  -4 2602.19 90.5722   1
   0  -3   4 2439.93 89.0586   3
   0   3  -4 2521.41 89.8299   2
   0   3  -4 2416.89 89.0740   3
   0   3  -4 2477.35 93.5360   1
  -1  -3  -4 69.1800 5.31199   2
   1  -3   4 72.0443 5.20187   2
  -1  -3  -4 76.4653 6.39551   1
   1  -3   4 71.7631 9.01833   1
   1  -3   4 66.4676 3.76958   3
  -1  -3  -4 74.7131 5.53873   3
  -1   3  -4 67.4303 8.14230   1
  -1   3  -4 65.2271 3.73919   3
  -1   3  -4 71.5340 5.57362   2
   2  -3   4 40.6156 4.35237   2
  -2  -3  -4 51.6039 6.06191   1
  -2  -3  -4 47.4962 4.62065   2
  -2  -3  -4 41.8381 4.68839   3
   2  -3   4 44.4423 2.61136   3
   2  -3   4 43.0626 7.06401   1
  -2   3  -4 38.2586 6.18398   1
  -2   3  -4 43.4139 4.87022   2
  -3  -3  -4 48.1946 6.43809   1
   3  -3   4 37.2860 4.33460   2
  -3  -3  -4 42.2221 4.69081   2
  -3  -3  -4 41.6304 4.88257   3
   3  -3   4 37.1010 6.58936   1
  -3   3  -4 28.2223 5.79428   1
  -3   3  -4 41.9164 3.98979   2
  -3   3  -4 41.0025 6.29715   1
  -4  -3  -4 -0.2445 2.38026   2
  -4  -3  -4 0.01987 4.13929   3
   4  -3   4 5.24920 2.61921   2
  -4  -3  -4 3.25178 3.92116   1
   4  -3   4 -3.7292 4.26734   1
  -4   3  -4 0.16969 2.34106   2
  -4   3  -4 -5.0269 3.65150   1
  -4   3  -4 2.46309 4.15001   1
   5  -3   4 56.5824 4.63241   2
   5  -3   4 54.1776 7.74355   1
  -5  -3  -4 52.8239 5.06275   2
  -5  -3  -4 60.2117 8.01975   1
  -5  -3  -4 48.5119 5.37922   3
  -5   3  -4 64.3573 8.18536   1
   5   3   4 50.9701 6.42805   1
  -5   3  -4 51.7313 6.99667   1
  -5   3  -4 51.1717 4.97398   2
  -6  -3  -4 44.9926 7.03005   1
  -6  -3  -4 27.3856 3.51926   2
  -6  -3  -4 27.5030 3.85271   3
   6  -3   4 31.2944 3.32662   2
  -6   3  -4 33.4769 3.54591   2
  -6   3  -4 36.5041 6.41225   1
  -6   3  -4 32.1882 6.10670   1
   6   3   4 36.1230 5.49413   1
  -7  -3  -4 95.1807 6.27209   2
  -7  -3  -4 76.0217 10.0257   1
   7  -3   4 79.2390 5.46443   2
  -7   3  -4 85.8843 9.15560   1
  -7   3  -4 82.8353 8.94293   1
   7   3   4 96.8795 8.63123   1
   7   3   4 87.2962 7.09738   3
  -7   3  -4 91.5571 5.89036   2
  -8  -3  -4 9.46383 8.31466   1
   8  -3   4 10.3255 2.42382   2
  -8  -3  -4 6.91211 3.03242   2
  -8  -3  -4 15.8631 3.44064   2
  -8   3  -4 13.1483 2.90953   2
  -8   3  -4 5.10008 5.23201   1
  -8   3  -4 18.4126 9.60789   1
   8   3   4 12.7054 3.81928   3
   9  -3   4 90.2190 5.58657   2
  -9  -3  -4 82.2799 6.48303   2
  -9  -3  -4 107.047 11.0837   1
  -9  -3  -4 83.5312 6.97879   2
  -9   3  -4 85.3195 6.06206   2
  -9   3  -4 79.3939 9.69785   1
   9   3   4 89.2470 9.74586   1
   9   3   4 94.8052 7.47852   3
  -9   3  -4 87.2379 9.90345   1
 -10  -3  -4 9.49214 3.67953   2
 -10  -3  -4 8.58465 6.88166   1
  10  -3   4 2.47808 2.37850   2
 -10  -3  -4 12.1189 3.73516   2
 -10   3  -4 14.9530 3.12009   2
 -10   3  -4 2.66007 5.46848   1
 -10   3  -4 1.16577 5.33160   1
  10   3   4 11.7093 4.64733   3
  10   3   4 7.64007 5.63153   1
 -11  -3  -4 369.042 22.9617   1
  11  -3   4 355.306 14.7419   2
 -11  -3  -4 371.314 15.6924   2
 -11  -3  -4 380.741 16.0117   2
  11   3   4 372.044 21.0093   1
 -11   3  -4 362.813 15.0284   2
  11   3   4 377.863 16.7458   3
 -11   3  -4 371.478 21.0006   1
 -11   3  -4 354.972 20.4867   1
  12  -3   4 0.77774 2.16702   2
 -12  -3  -4 -2.3391 3.53121   2
 -12  -3  -4 1.24989 7.11888   1
 -12  -3  -4 -3.9036 3.03731   2
 -12   3  -4 1.28829 2.56944   2
 -12   3  -4 2.62647 5.66673   1
  12   3   4 1.36743 5.14248   1
 -12   3  -4 6.95621 5.63190   1
  12   3   4 3.44206 4.36159   3
  13  -3   4 -0.1503 2.05356   2
 -13  -3  -4 -7.6518 6.83340   1
 -13  -3  -4 -1.3234 3.36552   2
 -13   3  -4 -3.5603 5.43244   1
  13   3   4 -1.3161 3.98947   3
  13   3   4 5.51943 5.86384   1
 -13   3  -4 1.75010 5.35433   1
 -13   3  -4 -3.8274 2.41933   2
  14  -3   4 1.91303 2.10048   2
 -14  -3  -4 -2.0603 6.69888   1
 -14  -3  -4 5.91846 3.49425   2
 -14   3  -4 1.91947 7.57505   1
  14   3   4 5.80310 4.59858   3
 -14   3  -4 0.77097 5.56263   1
  14   3   4 0.59913 5.00024   1
 -14   3  -4 3.96497 2.64343   2
  15  -3   4 7.04456 2.30941   2
 -15  -3  -4 2.50650 3.74165   2
 -15  -3  -4 8.86258 9.36156   1
 -15   3  -4 6.58064 2.69847   2
  15   3   4 4.01932 5.99716   1
  15   3   4 13.3541 5.19567   3
 -15   3  -4 9.83196 6.14087   1
 -16  -3  -4 12.4709 9.93435   1
  16  -3   4 5.98375 2.12158   2
 -16  -3  -4 10.0332 3.92943   2
  16   3   4 7.55086 5.16977   3
  16   3   4 8.14319 6.88097   1
 -16   3  -4 7.91617 6.38735   1
 -16   3  -4 13.0574 2.77209   2
  17  -3   4 3.15542 1.94394   2
 -17  -3  -4 1.23484 3.53389   2
 -17   3  -4 1.41416 6.22362   1
 -17   3  -4 3.92678 2.48296   2
  17   3   4 7.81295 7.47484   1
  17   3   4 7.08421 4.94786   3
 -18  -3  -4 23.1203 17.5191   1
  18   3   4 23.9213 10.4985   3
  18   3   4 14.7433 8.63350   1
 -19  -3  -4 7.20431 4.08017   2
 -19  -3  -4 38.3435 13.0296   1
  19   3   4 8.74348 5.30475   3
 -20  -3  -4 38.3823 5.21088   2
 -20   3  -4 36.4656 3.79713   2
 -20   3  -4 14.8375 14.2012   1
  20   3   4 50.2747 7.72315   3
 -21  -3  -4 -3.9373 3.97771   2
  21   3   4 -2.6884 5.06216   3
  20  -4  -4 28.6010 4.41843   3
  20   4  -4 34.3898 7.99129   3
  19  -4  -4 7.39976 3.74019   3
 -19  -4   4 14.2021 13.7282   1
  19  -4  -4 8.67120 7.22090   1
  19   4  -4 15.1542 6.49674   3
 -18  -4   4 64.8624 15.3740   1
  18  -4  -4 88.2612 7.07729   3
  18  -4  -4 84.1886 11.3860   1
  18   4  -4 106.490 11.2218   3
  17  -4  -4 14.5254 6.64037   1
 -17  -4   4 20.0271 18.4888   1
  17  -4  -4 10.0930 3.89008   3
  17   4  -4 -1.5213 8.00435   1
  17   4  -4 11.3935 8.00878   3
  16  -4  -4 21.8360 6.97759   1
 -16  -4   4 24.6110 12.1105   1
  16  -4  -4 42.9342 4.83494   3
  16   4  -4 41.4532 7.32794   3
  16   4  -4 19.9920 9.01592   1
  15  -4  -4 5.05889 3.46589   3
  15  -4  -4 0.40158 5.26261   1
 -15  -4   4 0.03833 8.54005   1
  15   4  -4 5.39854 5.19260   3
  15   4  -4 -12.140 7.74707   1
  14  -4  -4 0.29191 1.44118   2
 -14  -4   4 -0.1312 9.26784   1
  14  -4  -4 -0.0129 3.19795   3
  14  -4  -4 0.32364 1.48945   2
  14  -4  -4 1.97225 4.87134   1
  14   4  -4 6.32899 7.01992   1
  14   4  -4 6.15805 4.68726   3
 -13  -4   4 66.6581 12.7141   1
  13  -4  -4 71.5062 7.39420   3
  13  -4  -4 74.8940 8.96486   1
  13  -4  -4 84.7631 4.54382   2
  13  -4  -4 91.0694 4.75751   2
  13   4  -4 74.9319 11.8888   1
  13   4  -4 88.6929 8.82219   3
  12  -4  -4 57.7469 6.52795   3
  12  -4  -4 57.1662 4.42459   2
 -12  -4   4 51.3771 11.5221   1
  12  -4  -4 54.4989 7.43989   1
  12   4  -4 53.2328 6.32214   3
  12   4  -4 32.9028 9.32873   1
 -11  -4   4 78.3296 13.3697   1
  11  -4  -4 90.7721 6.32852   3
  11  -4  -4 76.9590 4.97300   2
  11   4  -4 85.7174 11.9884   1
  11   4  -4 92.0475 8.20618   3
 -10  -4   4 0.80897 6.72146   1
  10  -4  -4 3.04010 3.53367   3
  10  -4  -4 -1.8837 1.81863   2
  10   4  -4 -2.3849 3.20743   2
  10   4  -4 6.04166 3.84766   3
  10   4  -4 0.08579 5.05295   1
  -9  -4   4 29.3844 9.22258   1
   9  -4  -4 29.6392 3.05832   2
   9   4  -4 36.3672 5.25972   3
   9   4  -4 25.8452 7.31617   1
   9   4  -4 20.3793 3.67503   2
   8  -4  -4 4.80366 2.25514   2
  -8  -4   4 5.50371 7.50188   1
  -8  -4   4 3.70253 2.97001   2
   8  -4  -4 5.35772 3.05704   3
   8   4  -4 3.30365 3.42504   3
   8   4  -4 -6.2692 4.72768   1
   8   4  -4 0.62683 3.30427   2
   7  -4  -4 142.360 7.36622   2
   7  -4  -4 144.336 8.40544   3
  -7  -4   4 137.785 14.0065   1
  -7  -4   4 134.165 8.62056   2
   7   4  -4 138.526 8.66795   2
   7   4  -4 165.292 8.85623   3
   7   4  -4 156.145 13.1472   1
  -6  -4   4 70.9668 6.45387   3
  -6  -4   4 77.5986 10.7122   1
   6  -4  -4 62.4241 6.05465   3
   6  -4  -4 73.2281 5.21551   2
  -6  -4   4 61.9841 6.12377   2
   6   4  -4 56.2916 8.81546   1
   6   4  -4 61.8008 6.47541   2
   6   4  -4 66.0850 6.51766   3
  -5  -4   4 83.7724 11.6308   1
   5  -4  -4 79.2903 6.43742   3
  -5  -4   4 85.8452 6.63501   2
   5  -4  -4 80.7225 5.66620   2
   5   4  -4 83.7899 6.83016   2
   5   4  -4 85.5932 10.4809   1
  -4  -4   4 21.3018 7.32463   1
   4  -4  -4 17.6012 2.80755   2
  -4  -4   4 16.4881 3.44262   2
  -4  -4   4 25.2048 3.85767   3
   4   4  -4 27.3078 3.84390   3
   4   4  -4 21.0366 6.33648   1
   4   4  -4 21.5661 4.26970   2
  -3  -4   4 43.5025 8.45548   1
   3  -4  -4 48.7058 4.37780   2
   3  -4  -4 50.9408 7.14222   3
  -3  -4   4 37.7449 4.03088   3
  -3  -4   4 33.4819 4.41625   2
   3   4  -4 41.9689 4.57345   2
   3   4  -4 37.6409 4.71673   3
   3   4  -4 36.7156 6.71670   1
   2  -4  -4 19.8315 3.32787   3
  -2  -4   4 28.6669 3.41021   3
   2  -4  -4 16.6455 2.98196   2
  -2  -4   4 25.7677 7.04511   1
   2   4  -4 20.6613 3.61791   2
   2   4  -4 20.3758 5.53914   1
   2   4  -4 20.6598 3.09931   3
  -1  -4   4 9.25887 6.12829   1
  -1  -4   4 11.2505 4.59188   2
   1  -4  -4 20.2387 3.00397   1
   1  -4  -4 15.3475 3.17301   2
  -1  -4   4 21.2323 3.08726   3
   1  -4  -4 14.8546 3.19697   3
   1   4  -4 17.7113 3.53662   2
   1   4  -4 17.3736 5.64561   1
   1   4  -4 22.9456 3.00126   3
   0  -4   4 149.886 12.7908   1
   0  -4  -4 131.803 8.01009   2
   0  -4  -4 145.065 8.05268   3
   0  -4   4 141.375 6.93973   3
   0  -4   4 131.307 8.85212   2
   0  -4  -4 127.922 11.2035   1
   0   4  -4 160.139 7.02109   3
   0   4  -4 153.912 11.4256   1
   0   4  -4 157.279 8.46896   2
   1  -4   4 125.401 7.65087   2
   1  -4   4 128.982 6.87702   3
  -1  -4  -4 110.375 7.56375   3
   1  -4   4 140.940 12.7341   1
  -1  -4  -4 132.719 9.07678   1
  -1  -4  -4 137.996 7.91758   2
  -1   4  -4 143.544 10.8360   1
  -1   4  -4 143.342 8.19991   2
  -2  -4  -4 39.9748 5.99993   1
   2  -4   4 45.8440 3.40802   3
   2  -4   4 42.5195 8.08227   1
   2  -4   4 51.9448 4.96672   2
  -2   4  -4 40.4663 6.90245   1
  -2   4  -4 56.1153 5.35923   2
  -2   4  -4 45.2141 7.07403   1
   3  -4   4 448.981 18.7338   2
  -3  -4  -4 484.491 21.9937   1
   3  -4   4 462.175 17.0194   3
   3  -4   4 516.400 24.1941   1
  -3  -4  -4 493.867 19.4486   2
  -3   4  -4 450.026 19.0016   2
  -3   4  -4 423.017 21.8166   1
  -3   4  -4 452.489 21.9866   1
   4  -4   4 8.02101 5.55347   1
   4  -4   4 3.39488 2.74734   2
  -4  -4  -4 0.47911 4.49205   1
  -4  -4  -4 6.59734 3.49867   2
  -4   4  -4 6.44608 4.76169   1
  -4   4  -4 3.46967 4.67235   1
  -4   4  -4 9.81385 3.58166   2
  -5  -4  -4 73.1546 6.55749   2
  -5  -4  -4 85.6806 9.59447   1
   5  -4   4 96.0454 10.8590   1
   5  -4   4 76.3793 6.02188   2
  -5   4  -4 78.7378 6.51997   2
  -5   4  -4 74.9608 8.62027   1
  -5   4  -4 77.6334 8.90857   1
  -6  -4  -4 62.3776 7.68788   2
  -6  -4  -4 85.2789 9.84142   1
   6  -4   4 81.9205 6.06542   2
  -6   4  -4 99.8382 9.20960   1
  -6   4  -4 78.1603 8.95069   1
  -6   4  -4 78.9337 6.44701   2
   7  -4   4 8.01614 2.95383   2
  -7  -4  -4 5.53675 5.76020   1
  -7   4  -4 0.67658 3.20571   2
   7   4   4 9.35466 4.45080   1
  -7   4  -4 4.65855 4.66735   1
  -7   4  -4 4.01763 4.54462   1
   8  -4   4 16.3491 3.09845   2
  -8  -4  -4 7.42998 6.44183   1
   8   4   4 20.9839 4.84196   3
  -8   4  -4 17.3387 3.74582   2
  -8   4  -4 21.6158 5.73525   1
  -8   4  -4 16.1089 5.36033   1
   8   4   4 16.8846 5.11109   1
   9  -4   4 8.40101 3.15686   2
  -9  -4  -4 10.9214 7.28851   1
  -9  -4  -4 9.09602 4.00066   2
  -9   4  -4 1.62302 4.71344   1
   9   4   4 4.82479 4.89473   1
  -9   4  -4 8.99827 5.42876   1
   9   4   4 13.8318 4.77464   3
  -9   4  -4 16.0340 3.69043   2
 -10  -4  -4 393.685 16.6059   2
 -10  -4  -4 350.751 23.2554   1
  10  -4   4 382.368 16.0877   2
 -10   4  -4 343.653 20.0355   1
 -10   4  -4 363.744 19.8609   1
  10   4   4 362.623 20.2478   1
  10   4   4 382.090 17.4314   3
 -10   4  -4 366.891 15.7114   2
  11  -4   4 398.039 18.0411   2
 -11  -4  -4 407.171 25.6814   1
 -11  -4  -4 420.621 18.1119   2
 -11   4  -4 431.610 22.1547   1
 -11   4  -4 398.538 21.6803   1
  11   4   4 389.032 22.3037   1
  11   4   4 468.559 19.4270   3
 -11   4  -4 396.910 17.1600   2
 -12  -4  -4 3.31208 4.11027   2
 -12  -4  -4 2.20885 7.66062   1
 -12   4  -4 3.99210 5.81798   1
 -12   4  -4 1.45540 2.98875   2
  12   4   4 0.59897 5.66614   1
 -12   4  -4 0.68259 5.00227   1
  12   4   4 0.87260 4.66158   3
 -13  -4  -4 61.8255 14.5154   1
  13   4   4 55.6155 10.3371   1
 -13   4  -4 54.4667 5.66717   2
 -13   4  -4 54.8028 9.39731   1
  13   4   4 70.1464 7.79760   3
 -13   4  -4 35.2000 7.80467   1
 -14  -4  -4 7.77764 4.34896   2
 -14  -4  -4 -3.2214 9.07095   1
 -14   4  -4 1.25972 2.77417   2
 -14   4  -4 -0.1803 5.05491   1
 -14   4  -4 4.47744 5.97486   1
  14   4   4 0.23163 4.45079   3
  14   4   4 -11.041 5.26413   1
  15  -4   4 -3.6265 2.47612   2
 -15  -4  -4 -1.8979 3.80620   2
 -15  -4  -4 6.07077 10.0535   1
  15   4   4 -1.8776 8.17026   3
 -15   4  -4 1.18672 2.77150   2
 -15   4  -4 9.89724 6.82444   1
 -16  -4  -4 0.59093 4.16447   2
  16  -4   4 -1.6275 1.99647   2
 -16   4  -4 -2.4706 7.21275   1
  16   4   4 -5.6780 4.60696   3
 -16   4  -4 -0.8871 2.57856   2
 -17  -4  -4 8.48815 4.65909   2
  17   4   4 8.33485 5.42912   3
 -17   4  -4 15.4586 3.09609   2
 -17   4  -4 22.1758 9.38427   1
 -18  -4  -4 6.56333 4.92167   2
  18   4   4 6.52639 5.45168   3
 -18   4  -4 9.08617 2.72228   2
 -18   4  -4 -1.4264 12.7085   1
 -19  -4  -4 22.8359 5.06246   2
  19   4   4 25.8057 6.25725   3
 -19   4  -4 27.3642 3.20405   2
  18   5  -4 0.77692 5.65242   3
  17  -5  -4 10.0503 3.44393   3
  17   5  -4 13.9925 6.36403   3
  16  -5  -4 0.66762 3.06724   3
  16   5  -4 -0.1974 5.96887   3
  15  -5  -4 3.13005 3.20055   3
  15   5  -4 4.34056 5.86969   3
  14  -5  -4 -0.2614 1.67143   2
  14  -5  -4 0.19010 3.06836   3
  14  -5  -4 3.76441 2.37893   2
  13  -5  -4 4.14544 3.19032   3
 -13  -5   4 -1.2427 11.9089   1
  13  -5  -4 3.71397 2.51730   2
  13  -5  -4 -0.5902 1.71792   2
  13   5  -4 1.03938 5.32402   3
 -12  -5   4 55.3688 12.3503   1
  12  -5  -4 49.1893 5.38391   3
  12  -5  -4 48.5917 5.07034   2
  12  -5  -4 41.2747 4.01839   2
  12   5  -4 56.9005 6.76056   3
  12   5  -4 31.5228 12.4902   1
  11  -5  -4 15.6421 3.52856   3
 -11  -5   4 6.22583 9.96342   1
  11  -5  -4 8.45923 2.52475   2
  11   5  -4 8.11097 6.85566   1
  11   5  -4 13.6598 4.74227   3
  10  -5  -4 17.2828 3.57728   3
  10   5  -4 15.0756 6.57124   1
  10   5  -4 21.0169 5.32061   3
   9  -5  -4 11.2034 2.62206   2
   9  -5  -4 14.0125 3.65102   3
  -9  -5   4 13.6414 9.88931   1
   9   5  -4 0.00924 8.38903   1
   9   5  -4 17.6071 4.57086   3
  -8  -5   4 7.98319 7.71975   1
   8  -5  -4 9.26830 3.46955   3
   8  -5  -4 5.58748 2.61250   2
   8   5  -4 2.76654 3.59528   3
   8   5  -4 8.18950 6.27991   1
  -7  -5   4 7.19671 7.82048   1
   7  -5  -4 2.81014 2.33396   2
   7  -5  -4 6.33818 3.29482   3
   7   5  -4 11.1947 3.71460   3
   7   5  -4 13.6352 5.71657   1
   7   5  -4 17.7875 5.68388   2
  -6  -5   4 11.8649 7.54380   1
   6  -5  -4 1.27128 2.33069   2
   6   5  -4 8.18368 4.13932   2
   6   5  -4 8.27291 5.44436   1
   6   5  -4 10.0250 3.78131   3
  -5  -5   4 19.1616 8.14841   1
   5   5  -4 16.5288 3.84796   3
   5   5  -4 16.9751 5.58532   1
   5   5  -4 17.7082 4.69425   2
  -4  -5   4 33.5434 8.78540   1
   4   5  -4 28.8138 6.33642   1
   4   5  -4 27.5157 5.16443   2
   4   5  -4 27.4299 4.22316   3
  -3  -5   4 108.852 13.1352   1
  -3  -5   4 93.1125 6.59315   3
   3   5  -4 87.6091 9.70191   1
   3   5  -4 89.0899 8.07567   2
   3   5  -4 98.6702 6.77668   3
  -2  -5   4 10.3485 6.97760   1
  -2  -5   4 6.29733 3.06003   3
   2   5  -4 6.30658 4.05083   2
   2   5  -4 -0.3742 3.19931   3
   2   5  -4 3.56612 4.52444   1
   1  -5  -4 114.817 6.13510   1
  -1  -5   4 115.462 12.8512   1
  -1  -5   4 116.226 6.72542   3
   1   5  -4 123.109 8.54342   2
   1   5  -4 106.316 9.73308   1
   0  -5  -4 -0.0938 2.78880   1
   0  -5   4 1.90513 5.84723   1
   0  -5   4 3.78694 2.59967   3
   0   5  -4 1.25463 3.40916   2
   0   5  -4 2.38371 4.49737   1
   0   5  -4 2.15710 3.94476   1
  -1  -5  -4 3.47846 3.54749   1
   1  -5   4 -0.3285 2.18514   3
   1  -5   4 4.70067 5.92129   1
  -1   5  -4 0.03791 4.02445   1
  -1   5  -4 0.53456 4.32103   1
  -1   5  -4 2.68000 4.05795   2
  -2  -5  -4 17.5443 4.91672   1
   2  -5   4 9.21155 6.28566   1
  -2   5  -4 18.1885 4.95799   1
  -2   5  -4 8.79345 4.25015   1
  -2   5  -4 13.1515 3.78561   2
  -3  -5  -4 25.7470 5.91749   1
   3  -5   4 27.5620 2.55014   3
   3  -5   4 34.7018 8.02107   1
  -3   5  -4 21.5362 5.00530   1
  -3   5  -4 23.1825 4.93258   2
  -3   5  -4 26.3103 5.28515   1
  -4  -5  -4 177.701 13.4471   1
   4  -5   4 219.362 15.7339   1
  -4   5  -4 172.008 11.5794   1
  -4   5  -4 186.280 11.3570   1
  -4   5  -4 186.141 10.5553   2
  -5  -5  -4 85.6998 10.3403   1
  -5   5  -4 84.9555 7.59958   2
  -5   5  -4 85.6126 8.22006   1
  -5   5  -4 73.1775 7.66351   1
  -6  -5  -4 72.1361 11.1304   1
  -6   5  -4 61.7129 7.25344   1
  -6   5  -4 43.7468 5.13601   2
  -6   5  -4 63.4084 10.1078   1
  -7  -5  -4 102.412 18.1144   1
  -7   5  -4 151.211 10.0303   1
  -7   5  -4 156.323 9.32606   2
  -8  -5  -4 31.9056 8.52987   1
  -8   5  -4 28.6325 4.25022   2
  -8   5  -4 37.7438 5.68306   1
  -8   5  -4 36.7893 9.18690   1
  -9  -5  -4 -2.6375 5.96338   1
  -9   5  -4 0.59281 4.38707   1
  -9   5  -4 5.21408 3.35953   2
  -9   5  -4 2.38454 4.15391   1
 -10  -5  -4 26.6755 5.43256   2
 -10   5  -4 22.5682 5.28891   1
 -10   5  -4 29.5885 5.33595   1
 -10   5  -4 32.3078 4.70170   2
 -11  -5  -4 17.8551 4.99983   2
 -11   5  -4 8.04539 3.55837   2
 -11   5  -4 16.7129 4.79716   1
 -11   5  -4 7.72262 4.51167   1
 -12  -5  -4 -5.3166 3.98281   2
 -12   5  -4 -2.2235 3.13125   2
 -12   5  -4 8.64201 4.90847   1
 -13  -5  -4 2.28123 4.31105   2
 -13   5  -4 -0.5544 3.24722   2
 -13   5  -4 0.63167 5.06832   1
 -14  -5  -4 4.10291 4.96376   2
 -14   5  -4 11.7378 5.80989   1
  14   5   4 4.82937 5.12888   3
 -14   5  -4 6.32609 3.46733   2
 -15  -5  -4 -1.5025 4.86427   2
  15   5   4 3.83971 5.59055   3
 -15   5  -4 0.42866 3.15718   2
 -16  -5  -4 56.5927 6.51238   2
 -16   5  -4 73.7267 6.27456   2
  16   5   4 87.5950 9.68703   3
  13  -6  -4 -0.2294 2.73011   3
  13  -6  -4 4.21503 3.01729   2
  13   6  -4 5.23477 5.35035   3
  12  -6  -4 1.36106 2.90908   3
  12  -6  -4 0.24509 3.04391   2
  12   6  -4 5.53043 5.27317   3
  11  -6  -4 8.87083 3.70297   2
  11  -6  -4 12.3791 3.43929   3
  11   6  -4 18.6230 5.41419   3
  10  -6  -4 27.5944 4.17480   3
  10   6  -4 24.4296 6.61826   3
   9  -6  -4 3.97700 3.33489   3
   9   6  -4 4.63394 4.51642   3
   8  -6  -4 4.20015 3.52425   3
   8   6  -4 2.35215 4.27516   3
   7  -6  -4 0.06408 3.26250   3
   7   6  -4 1.31393 3.96607   3
   6  -6  -4 -0.8169 3.43854   3
   6   6  -4 -3.0280 3.91425   3
   5   6  -4 2.12071 3.72739   3
   3   6  -4 0.47818 4.22816   1
   3   6  -4 -0.6521 4.37950   2
   2   6  -4 3.72801 4.69932   2
   2   6  -4 7.45045 3.89351   1
   2   6  -4 4.29422 4.16883   1
  -1  -6   4 8.98907 3.50096   3
   1   6  -4 10.9259 4.21480   2
   1   6  -4 14.1243 3.52430   1
   1   6  -4 7.80973 3.47127   1
   0  -6   4 2.17068 2.54234   3
   0   6  -4 8.34783 4.99958   2
   1  -6   4 26.1810 2.98585   3
  -1  -6  -4 24.7837 4.08014   1
  -1   6  -4 20.5593 4.48936   2
  -2   6  -4 11.2747 4.89324   2
  -3   6  -4 2.35007 4.43611   2
  -4   6  -4 -7.2181 3.52238   2
  -5   6  -4 29.0796 4.57704   2
  -6   6  -4 21.8496 4.27941   2
  -7   6  -4 -0.1082 3.64192   2
  -8   6  -4 1.69671 4.09386   2
  -9  -6  -4 -0.6708 5.31881   2
  -9   6  -4 -1.7194 3.66050   2
 -10  -6  -4 -1.3750 5.38420   2
 -10   6  -4 4.51432 3.56123   2
 -11  -6  -4 -3.8325 6.51478   2
 -11   6  -4 2.05301 3.36968   2
 -12  -6  -4 20.6181 6.09172   2
 -12   6  -4 19.2716 4.41178   2
  25   0  -5 -1.4336 4.91564   3
  24   0  -5 1.55871 5.85538   3
  24   0  -5 10.7894 9.59486   1
 -24   0   5 -3.5930 14.2870   1
  23   0  -5 8.90786 9.01302   3
 -23   0   5 15.7488 12.8517   1
  23   0  -5 -4.9230 8.15943   1
 -22   0   5 -12.401 9.73686   1
  22   0  -5 -7.5445 5.15370   3
  22   0  -5 3.36737 7.73793   1
  21   0  -5 6.32078 8.03316   1
 -21   0   5 -4.3308 8.50194   1
  21   0  -5 0.82751 4.70741   3
  20   0  -5 -0.1051 4.43987   3
  20   0  -5 1.17169 5.83360   1
 -20   0   5 6.43134 8.44884   1
  19   0  -5 -9.3873 5.20644   1
  19   0  -5 -2.0624 4.84426   3
 -19   0   5 -6.4199 7.00011   1
  18   0  -5 -0.7925 5.91103   1
  18   0  -5 3.47284 4.48118   3
 -18   0   5 4.31709 7.71831   1
  17   0  -5 -1.2108 4.12220   3
 -17   0   5 4.46495 7.59816   1
  17   0  -5 4.49765 5.34121   1
  16   0  -5 2.78611 11.3692   1
 -16   0   5 3.35110 7.54040   1
  16   0  -5 -0.2979 4.38185   3
 -15   0   5 15.0788 7.69079   1
  15   0  -5 8.83487 6.72261   1
  15   0  -5 15.6299 5.17657   3
  14   0  -5 24.2730 5.00104   3
 -14   0   5 9.66383 7.41664   1
  13   0  -5 -1.5698 4.44947   1
  13   0  -5 2.03642 4.41492   3
 -13   0   5 3.83290 5.47559   1
 -13   0   5 0.14574 3.08507   3
 -12   0   5 0.02724 4.75121   1
 -12   0   5 -0.3061 0.95943   2
  12   0  -5 5.56862 4.96789   1
  11   0  -5 3.18979 4.62535   1
  11   0  -5 5.78493 3.58867   3
 -11   0   5 9.25884 3.23426   3
  11   0  -5 4.24805 1.05283   2
 -11   0   5 3.13807 1.10946   2
 -11   0   5 5.56285 5.40038   1
  10   0  -5 1.93649 4.37788   1
 -10   0   5 2.13569 1.11933   2
  10   0  -5 0.57442 2.94382   3
  10   0  -5 -0.0727 1.06246   2
 -10   0   5 -2.3821 4.98729   1
 -10   0   5 1.28151 2.75328   3
  -9   0   5 2.97198 1.15665   2
   9   0  -5 5.00812 4.19495   1
  -9   0   5 6.96440 2.73103   3
   9   0  -5 1.38121 1.13514   2
   9   0  -5 10.6961 3.09894   3
  -9   0   5 5.97596 4.61840   1
   8   0  -5 -1.9905 3.34161   1
   8   0  -5 0.95596 2.46164   3
  -8   0   5 -0.7814 1.09699   2
   8   0  -5 -0.9231 1.10049   2
  -8   0   5 1.40311 2.47950   3
  -8   0   5 8.81857 4.81376   1
   7   0  -5 -1.0788 2.45395   3
  -7   0   5 -0.4297 1.22891   2
  -7   0   5 -1.1002 3.81758   1
   7   0  -5 0.15700 3.52388   1
   7   0  -5 0.17403 1.16399   2
  -7   0   5 0.32768 2.31535   3
  -6   0   5 1.08154 3.84982   1
  -6   0   5 2.15011 1.30415   2
   6   0  -5 1.27310 4.18156   1
  -6   0   5 0.83375 2.26074   3
   6   0  -5 1.68046 2.48982   3
   6   0  -5 -0.7948 1.28735   2
   5   0  -5 1.80486 1.33699   2
  -5   0   5 1.27590 3.73859   1
   5   0  -5 2.61374 3.59325   1
  -5   0   5 2.76806 2.27481   3
  -5   0   5 1.22307 1.35515   2
   5   0  -5 1.54374 2.41850   3
   4   0  -5 -0.8422 1.39838   2
   4   0  -5 1.77180 2.34199   3
  -4   0   5 6.38163 4.10334   1
   4   0  -5 1.79953 3.32679   1
  -4   0   5 -1.7889 2.09631   3
  -4   0   5 0.21204 1.31199   2
   3   0  -5 -0.4277 3.18220   1
   3   0  -5 2.75252 2.04544   3
  -3   0   5 1.74993 1.46276   2
   3   0  -5 -0.3271 1.48075   2
  -3   0   5 8.37298 4.15194   1
   2   0  -5 -2.0733 2.07309   3
   2   0  -5 0.21723 3.45588   1
  -2   0   5 -1.2635 3.10170   1
   2   0  -5 0.69107 1.49498   2
  -2   0   5 -0.8442 1.31869   2
   1   0  -5 1.38793 1.78304   3
   1   0  -5 -2.5616 1.32653   2
  -1   0   5 -0.2597 1.53415   2
   1   0  -5 -2.7929 2.89416   1
  -1   0   5 0.62868 3.42085   1
   0   0  -5 -0.9522 3.47477   1
   0   0  -5 -0.0938 1.52283   2
   0   0   5 -1.0937 2.94480   1
   0   0   5 0.02339 1.40141   2
  -1   0  -5 -1.1354 1.48597   2
   1   0   5 -0.9787 1.44863   2
  -1   0  -5 0.79488 3.57776   1
   1   0   5 2.04990 3.18549   1
  -2   0  -5 1.72207 3.49100   1
   2   0   5 3.38796 1.67486   2
  -2   0  -5 2.53238 1.75222   2
  -3   0  -5 6.72248 1.98180   2
  -3   0  -5 1.29686 3.78019   1
   3   0   5 3.32417 1.83822   2
  -3   0  -5 4.40304 4.23562   1
  -3   0  -5 3.69011 1.84165   3
  -4   0  -5 -5.7830 3.80568   1
  -4   0  -5 2.10400 2.00615   2
   4   0   5 2.76717 1.82809   2
  -4   0  -5 -2.5732 1.76305   3
  -4   0  -5 0.78996 3.78759   1
  -5   0  -5 5.51230 4.72370   1
  -5   0  -5 1.53762 1.84931   2
  -5   0  -5 0.14287 1.93666   3
  -6   0  -5 -5.7538 3.80830   1
  -6   0  -5 1.85461 1.82283   2
   6   0   5 0.40384 1.63557   2
  -7   0  -5 -2.3558 1.68630   3
   7   0   5 0.25559 3.56474   1
  -7   0  -5 -0.9567 1.65379   2
   7   0   5 -0.8811 1.44797   2
  -7   0  -5 6.99323 4.59664   1
   8   0   5 -0.2648 4.13298   1
   8   0   5 1.63412 1.99180   3
  -8   0  -5 2.02791 4.50804   1
  -8   0  -5 1.14026 1.83683   3
  -8   0  -5 4.14319 2.03802   2
   9   0   5 0.76294 1.71379   2
   9   0   5 -0.0770 1.96574   3
  -9   0  -5 -0.3344 1.99986   3
  -9   0  -5 -0.8207 2.06158   2
  -9   0  -5 4.35271 5.09760   1
   9   0   5 -6.3921 3.72823   1
 -10   0  -5 -3.9432 2.79977   2
  10   0   5 1.46457 1.94700   2
 -10   0  -5 -0.7144 2.40884   3
  10   0   5 -3.5817 4.90674   1
  10   0   5 -0.6687 2.37908   3
 -10   0  -5 -2.6005 5.18424   1
 -11   0  -5 5.25383 6.92082   1
  11   0   5 21.1263 6.92210   1
 -12   0  -5 4.57967 6.49972   1
  12   0   5 -3.4942 4.79407   1
 -12   0  -5 -1.9587 2.88064   3
  12   0   5 -1.6092 2.62416   3
 -13   0  -5 -1.2309 2.37205   2
 -13   0  -5 0.41498 6.27877   1
  13   0   5 -2.7085 2.57637   3
  13   0   5 -0.8028 5.09923   1
 -13   0  -5 1.56608 3.01071   3
 -14   0  -5 7.31761 7.81278   1
  14   0   5 -3.3734 4.93855   1
 -14   0  -5 -0.5048 2.23739   2
 -14   0  -5 2.69238 4.20045   3
 -15   0  -5 -0.1359 2.33971   2
  15   0   5 -1.9782 3.17358   3
 -15   0  -5 -3.6408 6.50105   1
 -15   0  -5 2.45525 3.22014   3
  15   0   5 7.11232 5.99390   1
 -16   0  -5 -5.0695 7.52273   1
 -16   0  -5 -2.6241 2.27828   2
  16   0   5 3.78023 5.96382   1
  16   0   5 0.34095 2.84557   3
 -17   0  -5 -0.8541 2.39383   2
  17   0   5 3.88733 3.16923   3
 -17   0  -5 6.85677 8.24829   1
  17   0   5 13.8355 7.83121   1
 -18   0  -5 8.35348 9.37208   1
 -18   0  -5 0.46207 2.55191   2
  18   0   5 7.13257 6.42928   1
  18   0   5 3.64878 3.45929   3
  19   0   5 6.57770 7.13562   1
 -19   0  -5 0.70340 9.61831   1
  19   0   5 -1.9566 3.27504   3
 -19   0  -5 0.87927 2.50328   2
 -20   0  -5 -9.2096 8.80356   1
  20   0   5 7.41630 3.86520   3
 -20   0  -5 2.31336 2.58548   2
  20   0   5 -10.920 6.57801   1
 -21   0  -5 16.4679 11.2230   1
 -21   0  -5 -1.1663 2.62560   2
  21   0   5 8.23199 9.32287   1
  21   0   5 1.45124 3.77569   3
  22   0   5 0.00925 3.80811   3
  22   0   5 -8.7976 8.43481   1
 -22   0  -5 -2.4402 2.47958   2
 -22   0  -5 -13.446 12.7257   1
  23   0   5 18.0859 10.9088   1
  23   0   5 3.00745 3.93221   3
 -23   0  -5 -2.3292 2.42721   2
  25  -1  -5 13.0678 4.85941   3
  25   1  -5 4.33592 5.55979   3
  24  -1  -5 4.44417 5.10273   3
 -24  -1   5 25.6080 18.6711   1
  24   1  -5 6.37755 9.85338   1
  24   1  -5 10.8829 6.69122   3
  23  -1  -5 16.0713 9.16922   1
 -23  -1   5 15.9577 12.4030   1
  23  -1  -5 8.55509 5.87092   3
 -23   1   5 5.74644 11.9819   1
  23   1  -5 7.75382 5.92923   3
  23   1  -5 -4.2204 8.48552   1
  22  -1  -5 25.1186 10.9070   1
 -22  -1   5 35.2048 13.7308   1
  22  -1  -5 44.9713 7.05400   3
  22   1  -5 34.1789 11.9385   1
 -22   1   5 20.7477 10.8758   1
  22   1  -5 21.1619 11.5025   3
  21  -1  -5 52.5075 6.93865   3
 -21  -1   5 38.7295 11.6862   1
  21  -1  -5 32.1864 9.13138   1
  21   1  -5 32.3702 10.8105   1
 -21   1   5 18.7893 9.25178   1
  21   1  -5 50.7619 7.61208   3
  20  -1  -5 9.73278 4.89806   3
  20  -1  -5 -3.6387 6.05848   1
 -20  -1   5 3.48513 9.40899   1
  20   1  -5 4.27059 6.45739   1
 -20   1   5 3.76528 7.47460   1
  20   1  -5 0.60926 4.63843   3
  19  -1  -5 6.34436 4.61554   3
 -19  -1   5 6.02602 1.41907   2
  19  -1  -5 5.43806 5.89074   1
 -19  -1   5 4.14217 1.44765   2
 -19  -1   5 -0.7040 7.72511   1
  19   1  -5 5.64298 4.79092   3
 -19   1   5 4.43610 7.03506   1
  19   1  -5 3.70131 6.54957   1
  18  -1  -5 10.6379 6.25191   1
 -18  -1   5 8.42152 8.61858   1
 -18  -1   5 18.2524 1.99475   2
  18  -1  -5 16.2333 4.94940   3
 -18  -1   5 17.3802 1.96644   2
  18   1  -5 19.5426 7.92165   1
 -18   1   5 14.8533 7.21483   1
  18   1  -5 20.2851 5.94515   3
 -17  -1   5 43.8748 3.43194   2
  17  -1  -5 42.7004 5.84657   3
  17  -1  -5 34.8346 8.06415   1
 -17  -1   5 35.7457 10.0499   1
  17   1  -5 24.7050 8.08729   1
 -17   1   5 39.1394 8.48428   1
  17   1  -5 40.9117 5.81417   3
  16  -1  -5 9.67140 5.42738   1
 -16  -1   5 -1.2766 7.19855   1
  16  -1  -5 5.04792 4.42040   3
 -16  -1   5 0.04182 1.70297   2
  16   1  -5 -3.4446 4.02843   3
 -16   1   5 6.49154 5.89811   1
  16   1  -5 1.94086 5.75456   1
  15  -1  -5 121.847 8.31461   3
 -15  -1   5 119.785 5.57485   2
 -15  -1   5 134.317 14.3535   1
  15  -1  -5 87.0832 10.8514   1
  15   1  -5 109.043 13.4180   1
  15   1  -5 121.374 8.83732   3
 -15   1   5 94.9198 11.8529   1
 -14  -1   5 9.56544 1.96892   2
  14  -1  -5 10.5256 5.63852   1
 -14  -1   5 4.40189 7.55299   1
  14  -1  -5 11.8648 4.02872   3
 -14   1   5 9.84484 5.99072   1
  14   1  -5 8.16983 4.10324   3
  14   1  -5 2.83383 5.64363   1
 -14   1   5 8.51944 3.67206   3
 -13  -1   5 180.477 15.6307   1
  13  -1  -5 198.532 10.2918   3
  13  -1  -5 170.453 13.2068   1
 -13  -1   5 197.654 8.15538   2
 -13   1   5 205.309 9.87423   3
  13   1  -5 188.040 10.8104   3
 -13   1   5 183.591 13.8619   1
  13   1  -5 202.575 15.2909   1
  12  -1  -5 521.156 25.5288   1
 -12  -1   5 543.293 27.7133   1
  12  -1  -5 519.402 22.1065   3
 -12  -1   5 495.485 21.0474   3
 -12  -1   5 539.739 19.8013   2
 -12   1   5 539.701 25.4934   1
 -12   1   5 565.702 21.6699   3
  12   1  -5 477.567 22.1175   3
  12   1  -5 551.328 19.7986   2
  12   1  -5 546.095 27.0755   1
  11  -1  -5 161.811 11.9063   1
 -11  -1   5 174.873 15.0501   1
  11  -1  -5 158.155 8.56141   3
 -11  -1   5 163.761 7.03510   2
 -11   1   5 164.929 8.49968   3
 -11   1   5 156.647 11.7783   1
  11   1  -5 161.062 13.1655   1
  11   1  -5 155.294 6.97970   2
 -10  -1   5 40.9270 9.52162   1
 -10  -1   5 48.8721 3.50726   2
  10  -1  -5 49.6136 5.04069   3
  10  -1  -5 35.9361 6.45664   1
 -10  -1   5 43.7364 4.86782   3
  10   1  -5 35.6207 7.28032   1
 -10   1   5 53.3043 4.93274   3
 -10   1   5 48.5799 6.83595   1
  10   1  -5 49.7691 5.22486   3
  10   1  -5 39.5719 3.38936   2
  -9  -1   5 66.2767 5.44156   3
   9  -1  -5 73.9541 5.38263   3
  -9  -1   5 65.2700 4.08165   2
   9  -1  -5 71.2350 3.03469   2
   9  -1  -5 77.4836 7.74527   1
  -9  -1   5 66.2283 10.6088   1
   9   1  -5 65.4080 8.79969   1
  -9   1   5 75.3889 8.14043   1
   9   1  -5 71.3752 4.11076   2
  -9   1   5 70.2828 5.16240   3
   9   1  -5 63.3535 5.73472   3
  -8  -1   5 277.361 11.4072   2
  -8  -1   5 280.401 12.1955   3
   8  -1  -5 294.064 12.2852   3
  -8  -1   5 303.699 17.5898   1
   8  -1  -5 300.604 10.8840   2
   8  -1  -5 301.654 15.1045   1
  -8   1   5 298.637 14.7936   1
   8   1  -5 294.600 11.4771   2
   8   1  -5 298.168 12.5069   3
   7  -1  -5 433.080 18.8465   1
  -7  -1   5 418.783 20.7181   1
   7  -1  -5 398.017 15.9440   3
  -7  -1   5 389.207 15.2694   2
   7  -1  -5 396.718 14.8548   2
  -7  -1   5 387.592 15.9231   3
   7   1  -5 410.386 20.6352   1
   7   1  -5 394.619 16.0565   3
   7   1  -5 416.157 15.4012   2
  -7   1   5 413.903 18.2648   1
  -6  -1   5 3.01219 2.29052   3
   6  -1  -5 2.84095 3.39842   1
  -6  -1   5 2.80925 5.13936   1
  -6  -1   5 3.62913 1.60942   2
   6  -1  -5 3.36142 2.44056   3
   6  -1  -5 1.16296 1.23437   2
   6   1  -5 3.40918 4.29730   1
   6   1  -5 -0.0352 2.38097   3
   6   1  -5 2.27256 1.64251   2
  -6   1   5 2.27658 3.21332   1
   5  -1  -5 858.761 30.7372   2
  -5  -1   5 801.096 30.9468   2
   5  -1  -5 875.598 33.6206   1
   5  -1  -5 855.243 31.4652   3
  -5  -1   5 857.315 31.3529   3
  -5  -1   5 880.945 35.8284   1
   5   1  -5 844.930 31.4021   3
   5   1  -5 856.235 31.0464   2
   5   1  -5 846.017 36.3972   1
  -5   1   5 839.269 30.7074   2
  -5   1   5 819.550 32.9983   1
   4  -1  -5 101.543 5.95681   3
   4  -1  -5 96.1670 4.80889   2
  -4  -1   5 100.205 5.14469   2
  -4  -1   5 125.865 9.96824   1
  -4  -1   5 103.574 5.60800   3
   4  -1  -5 94.9304 7.32312   1
   4   1  -5 104.257 5.25540   2
  -4   1   5 106.461 7.14014   1
   4   1  -5 84.5637 10.8558   1
  -4   1   5 99.6272 4.71265   2
   4   1  -5 114.157 5.81020   3
  -3  -1   5 372.112 14.9711   2
   3  -1  -5 383.772 17.1912   1
  -3  -1   5 397.176 15.1795   3
   3  -1  -5 391.604 14.8454   2
  -3  -1   5 402.191 19.3474   1
   3   1  -5 399.988 15.2071   3
  -3   1   5 411.209 16.6699   1
   3   1  -5 407.451 25.3084   1
  -3   1   5 403.446 14.8077   2
   3   1  -5 385.739 15.0516   2
  -2  -1   5 2945.23 106.745   1
   2  -1  -5 2811.39 104.746   1
   2   1  -5 2777.53 109.106   1
  -2   1   5 2943.06 104.319   1
  -1  -1   5 813.469 32.5310   1
   1  -1  -5 775.164 28.4491   2
  -1  -1   5 753.775 28.5005   2
   1  -1  -5 798.131 30.7357   1
  -1  -1   5 774.703 28.3907   3
   1   1  -5 746.060 32.8469   1
   1   1  -5 773.469 28.5642   2
   1   1  -5 797.610 28.4170   3
  -1   1   5 769.815 28.4251   2
   0  -1  -5 8.24055 3.40235   1
   0  -1   5 6.53811 1.88127   2
   0  -1   5 4.27373 4.32092   1
   0  -1  -5 3.79349 1.74333   2
   0   1  -5 9.73350 1.78788   3
   0   1  -5 5.36655 1.81475   2
   0   1  -5 -2.0554 4.33788   1
   0   1   5 3.65400 1.69336   2
   1  -1   5 550.963 20.1666   2
  -1  -1  -5 554.545 20.1850   2
   1  -1   5 542.662 25.9894   1
  -1  -1  -5 545.380 22.6267   1
  -1   1  -5 527.239 20.1527   2
  -1   1  -5 545.486 19.7931   3
  -1   1  -5 504.546 24.1182   1
   1   1   5 539.181 20.0954   2
   2  -1   5 20.8414 5.45072   1
  -2  -1  -5 30.6488 3.25287   3
   2  -1   5 27.8884 3.14626   2
  -2  -1  -5 25.2326 4.84511   1
  -2  -1  -5 26.9327 2.63303   2
  -2   1  -5 27.9285 2.36233   3
  -2   1  -5 28.8093 7.78305   1
   2   1   5 25.6998 2.45037   2
  -2   1  -5 21.5064 2.42218   2
  -3  -1  -5 624.698 24.8355   1
  -3  -1  -5 544.260 21.3955   3
   3  -1   5 550.355 21.1322   2
  -3  -1  -5 547.314 21.1904   2
   3  -1   5 577.558 25.0820   1
  -3   1  -5 558.883 21.1685   2
   3   1   5 576.670 21.2074   2
  -3   1  -5 562.472 25.0481   1
  -4  -1  -5 5773.37 209.069   1
  -4   1  -5 5791.48 209.711   1
  -4   1  -5 5700.85 209.586   1
  -5  -1  -5 3.71072 2.11909   2
  -5  -1  -5 5.09541 4.22632   1
  -5  -1  -5 5.97711 2.33732   3
   5  -1   5 5.54256 1.86892   2
  -5   1  -5 4.76248 1.87631   2
  -5   1  -5 -1.2057 4.21129   1
  -5   1  -5 2.82715 4.59343   1
  -5   1  -5 5.62889 1.37678   3
  -6  -1  -5 1016.53 37.7374   2
  -6  -1  -5 1004.05 37.9737   3
  -6  -1  -5 1091.35 42.6029   1
   6  -1   5 989.824 37.5745   2
  -6   1  -5 1023.28 42.2114   1
   6   1   5 1059.17 41.9841   1
  -6   1  -5 1037.25 42.3699   1
  -6   1  -5 1054.72 37.1880   3
  -6   1  -5 1018.75 37.6397   2
   6   1   5 1017.67 38.0361   3
   7  -1   5 20.7165 2.35996   2
  -7  -1  -5 20.5949 5.40818   1
  -7  -1  -5 25.1527 3.29641   3
  -7   1  -5 32.9690 5.88468   1
  -7   1  -5 23.1204 2.25266   3
  -7   1  -5 15.8577 5.26649   1
   7   1   5 23.0883 5.35241   1
  -7   1  -5 16.1229 2.19488   2
   7   1   5 16.5293 2.86761   3
  -8  -1  -5 333.473 18.8407   1
  -8  -1  -5 345.884 13.8325   2
  -8  -1  -5 341.452 14.1491   3
  -8   1  -5 343.011 18.4190   1
   8   1   5 342.947 18.4051   1
  -8   1  -5 353.623 13.1917   3
  -8   1  -5 346.036 13.6577   2
  -8   1  -5 364.052 19.1701   1
   8   1   5 354.431 14.2320   3
  -9  -1  -5 142.199 7.39488   3
  -9  -1  -5 137.797 12.3932   1
  -9  -1  -5 118.836 9.72006   2
   9  -1   5 133.416 6.49507   2
  -9   1  -5 146.151 6.79382   2
   9   1   5 133.616 11.0589   1
  -9   1  -5 154.508 12.7275   1
  -9   1  -5 141.103 11.2540   1
  -9   1  -5 145.288 6.15483   3
   9   1   5 139.865 7.44502   3
 -10  -1  -5 17.7764 7.09418   1
 -10  -1  -5 13.1514 3.15419   3
 -10  -1  -5 16.8809 2.94808   2
  10  -1   5 8.58305 5.42746   1
  10  -1   5 18.2199 2.40466   2
 -10   1  -5 15.8153 2.39087   3
  10   1   5 13.3455 5.39137   1
 -10   1  -5 9.73134 5.29915   1
 -10   1  -5 9.12150 5.94692   1
  10   1   5 16.0222 3.23481   3
 -11  -1  -5 168.150 10.6496   3
  11  -1   5 157.343 6.92370   3
 -11  -1  -5 146.602 7.71680   2
 -11  -1  -5 143.245 13.3448   1
  11  -1   5 168.329 13.3475   1
  11  -1   5 149.879 7.06531   2
 -11   1  -5 144.696 12.6309   1
  11   1   5 135.529 12.5120   1
 -11   1  -5 153.471 6.97589   3
 -11   1  -5 147.313 7.30858   2
 -11   1  -5 149.713 13.6193   1
  12  -1   5 11.1399 2.41932   2
  12  -1   5 15.2307 2.53828   3
  12  -1   5 7.09464 6.05873   1
 -12  -1  -5 12.4283 7.14602   1
 -12  -1  -5 10.9828 2.83967   2
 -12  -1  -5 10.7033 3.92336   3
  12   1   5 15.4063 4.30559   3
 -12   1  -5 16.9929 2.67834   3
  12   1   5 12.4968 6.16955   1
 -12   1  -5 14.1664 8.23921   1
 -12   1  -5 9.55796 2.58868   2
 -13  -1  -5 264.795 11.0199   2
  13  -1   5 241.964 10.3663   3
 -13  -1  -5 214.111 12.4624   3
  13  -1   5 237.868 17.4800   1
  13  -1   5 251.271 10.3062   2
 -13  -1  -5 256.984 19.7367   1
  13   1   5 255.888 18.2545   1
 -13   1  -5 252.650 23.0813   1
 -13   1  -5 244.305 10.3945   3
  13   1   5 244.162 11.8960   3
  14  -1   5 338.519 21.8357   1
  14  -1   5 360.934 14.2431   2
 -14  -1  -5 359.234 14.7561   2
  14  -1   5 355.930 14.3832   3
 -14  -1  -5 370.031 23.2316   1
 -14   1  -5 388.139 22.9152   1
 -14   1  -5 359.876 14.3980   2
  14   1   5 345.881 22.4113   1
 -14   1  -5 342.077 14.3368   3
  14   1   5 371.224 15.8194   3
  15  -1   5 0.22970 1.93607   2
  15  -1   5 -0.6632 2.33162   3
 -15  -1  -5 2.82388 7.20158   1
  15  -1   5 8.61126 6.26490   1
 -15  -1  -5 -0.9128 2.62476   2
 -15   1  -5 -2.1106 2.16695   2
  15   1   5 -6.9958 5.70287   1
 -15   1  -5 -1.8319 2.32011   3
  15   1   5 1.09757 3.46244   3
 -15   1  -5 -1.1894 7.02443   1
  16  -1   5 12.2483 2.90819   3
 -16  -1  -5 11.0808 8.01187   1
 -16  -1  -5 12.5019 3.04705   2
  16  -1   5 10.4410 7.02908   1
  16   1   5 13.0416 7.59327   1
  16   1   5 13.4252 4.02870   3
 -16   1  -5 7.25882 7.09902   1
 -16   1  -5 14.5501 2.66685   2
 -16   1  -5 11.3667 2.84727   3
  17  -1   5 12.8157 7.58307   1
 -17  -1  -5 22.1875 3.51772   2
 -17  -1  -5 11.0089 8.90633   1
  17   1   5 22.5897 4.22889   3
  17   1   5 9.97674 7.45971   1
 -17   1  -5 20.3012 3.96539   3
 -17   1  -5 16.3776 2.85955   2
 -17   1  -5 27.8548 9.64649   1
 -18  -1  -5 69.1663 5.94701   2
  18  -1   5 64.5051 7.21818   3
  18  -1   5 53.9987 10.6840   1
 -18  -1  -5 81.2774 23.3481   1
  18   1   5 74.4166 7.45789   3
 -18   1  -5 63.8500 5.38642   3
 -18   1  -5 74.7211 12.4153   1
 -18   1  -5 66.2967 5.14750   2
  18   1   5 76.4506 13.0328   1
  19  -1   5 -2.4434 2.62068   3
 -19  -1  -5 -6.1357 9.45660   1
  19  -1   5 2.58127 7.51513   1
 -19  -1  -5 -0.1908 2.91646   2
  19   1   5 7.21781 7.68311   1
  19   1   5 -2.3087 3.95690   3
 -19   1  -5 -9.6346 8.27804   1
 -19   1  -5 1.93208 2.39637   2
 -20  -1  -5 -1.2430 2.82560   2
  20  -1   5 1.33465 2.94540   3
  20  -1   5 -6.3416 8.11702   1
 -20  -1  -5 -2.0641 11.2327   1
  20   1   5 19.7092 9.31474   1
  20   1   5 0.32725 4.03467   3
 -20   1  -5 17.1433 11.3034   1
 -20   1  -5 0.92857 2.28802   2
  21  -1   5 72.3655 6.10364   3
 -21  -1  -5 54.6132 15.8222   1
 -21  -1  -5 68.9645 6.07127   2
  21   1   5 52.8913 13.1162   1
 -21   1  -5 28.8181 12.7594   1
  21   1   5 76.2170 8.26144   3
 -21   1  -5 75.0368 5.18817   2
  22  -1   5 24.1340 11.9648   1
 -22  -1  -5 42.4254 17.1552   1
  22  -1   5 33.0079 4.36688   3
 -22  -1  -5 30.9867 3.85033   2
  22   1   5 27.9709 10.4693   1
 -22   1  -5 35.4641 4.11716   2
 -22   1  -5 26.8684 15.8107   1
 -23  -1  -5 18.3685 3.52475   2
 -23  -1  -5 38.8074 20.4267   1
  23  -1   5 26.5249 4.22050   3
  23   1   5 20.3569 5.04992   3
  24  -2  -5 25.2156 5.40429   3
  24   2  -5 17.0641 6.78722   3
  24   2  -5 19.8602 13.6252   1
 -23  -2   5 29.4383 16.2192   1
  23   2  -5 18.7843 15.0347   1
  23   2  -5 -1.7718 5.60659   3
 -23   2   5 -5.8661 12.4766   1
  22  -2  -5 26.0864 9.32410   1
 -22  -2   5 47.3690 14.6276   1
  22  -2  -5 58.9685 7.03968   3
  22   2  -5 56.3952 7.72510   3
 -22   2   5 43.0304 11.9883   1
  22   2  -5 52.9363 12.3305   1
 -21  -2   5 5.83809 4.92527   2
  21  -2  -5 5.30947 7.00676   1
 -21  -2   5 5.14263 2.51563   2
  21  -2  -5 2.89403 4.74754   3
 -21   2   5 -3.4022 8.82946   1
  21   2  -5 3.15679 7.98717   1
  21   2  -5 5.33399 5.84474   3
  20  -2  -5 4.04022 4.30422   3
 -20  -2   5 4.30611 9.60426   1
 -20  -2   5 6.33236 2.61695   2
  20  -2  -5 -1.4209 6.49313   1
 -20  -2   5 1.80644 2.54901   2
  20   2  -5 10.3735 5.53304   3
  20   2  -5 -3.6981 7.98783   1
 -20   2   5 5.27669 7.60444   1
  19  -2  -5 -2.1584 3.98133   3
  19  -2  -5 -1.1433 5.59388   1
 -19  -2   5 3.00500 8.96914   1
 -19  -2   5 1.48216 2.49632   2
 -19   2   5 0.60756 6.28219   1
  19   2  -5 2.51569 6.94655   1
  19   2  -5 -3.0545 4.93206   3
  18  -2  -5 13.6439 4.69767   3
 -18  -2   5 11.7292 2.74087   2
  18  -2  -5 9.44053 6.16541   1
 -18  -2   5 4.84979 8.29709   1
  18   2  -5 4.89420 7.37272   1
 -18   2   5 10.0390 6.51252   1
  18   2  -5 10.7824 5.47847   3
 -17  -2   5 16.6159 2.88764   2
  17  -2  -5 9.28898 4.01510   3
  17  -2  -5 11.7275 6.14689   1
 -17  -2   5 18.0059 8.88541   1
  17   2  -5 7.95702 7.11143   1
 -17   2   5 22.3483 6.62883   1
  17   2  -5 20.6753 5.55666   3
 -16  -2   5 0.15622 7.62537   1
 -16  -2   5 1.04894 2.35986   2
  16  -2  -5 -0.4015 4.80994   1
  16  -2  -5 6.10341 4.22273   3
 -16   2   5 2.86316 5.13341   1
  16   2  -5 1.07126 4.70766   3
  16   2  -5 15.5056 7.68050   1
  15  -2  -5 11.6484 3.89468   3
 -15  -2   5 3.49329 7.26041   1
 -15  -2   5 7.80418 2.49399   2
  15  -2  -5 7.80646 5.19800   1
  15   2  -5 4.38675 6.36614   1
  15   2  -5 10.6796 4.81775   3
 -15   2   5 6.45227 5.17627   1
  14  -2  -5 -0.9450 4.28721   1
  14  -2  -5 1.28415 3.26804   3
 -14  -2   5 2.04658 7.09526   1
 -14  -2   5 0.91622 2.37203   2
  14   2  -5 8.90085 6.24697   1
 -14   2   5 -6.1650 3.91209   1
  14   2  -5 2.58140 4.21680   3
  13  -2  -5 -0.5678 4.61645   1
  13  -2  -5 -4.0158 3.18594   3
 -13  -2   5 3.16665 7.53620   1
 -13  -2   5 0.94284 2.41735   2
  13   2  -5 -1.1503 3.96499   3
 -13   2   5 0.93456 4.37328   1
  13   2  -5 8.24335 6.58910   1
 -12  -2   5 22.0001 7.82461   1
 -12  -2   5 17.8830 2.83873   2
  12  -2  -5 19.3633 5.65945   1
  12   2  -5 22.2394 4.58244   3
  12   2  -5 12.4291 6.74099   1
 -12   2   5 15.1824 4.85997   1
  12   2  -5 24.4004 5.30208   2
 -11  -2   5 217.449 9.86626   2
  11  -2  -5 229.893 13.8471   1
 -11  -2   5 217.892 11.0181   3
  11  -2  -5 208.793 10.6498   3
 -11  -2   5 234.721 18.3400   1
  11   2  -5 238.358 11.9739   3
  11   2  -5 219.961 9.89027   2
  11   2  -5 224.967 16.2626   1
 -11   2   5 227.514 12.6020   1
  10  -2  -5 701.261 29.6348   1
 -10  -2   5 703.070 26.0725   2
  10  -2  -5 659.059 25.0419   2
  10  -2  -5 705.693 25.0566   2
 -10  -2   5 679.825 26.8864   3
  10  -2  -5 693.941 26.5833   3
 -10  -2   5 680.713 33.3385   1
  10   2  -5 732.365 33.0875   1
 -10   2   5 702.389 28.1662   1
  10   2  -5 672.483 26.0735   2
  10   2  -5 702.393 27.0478   3
   9  -2  -5 15.7277 1.55912   2
  -9  -2   5 14.0112 2.53556   2
  -9  -2   5 14.1030 3.70001   3
   9  -2  -5 12.8932 5.18333   1
   9  -2  -5 10.2304 2.94475   3
  -9  -2   5 15.4333 6.84934   1
   9  -2  -5 9.80710 1.47804   2
   9   2  -5 7.90470 2.21409   2
   9   2  -5 15.0932 6.43487   1
  -9   2   5 10.6775 3.23239   1
   9   2  -5 11.4195 3.51100   3
   8  -2  -5 248.858 9.41229   2
   8  -2  -5 246.065 9.43484   2
   8  -2  -5 249.368 10.7386   3
  -8  -2   5 235.373 10.2020   2
  -8  -2   5 236.336 15.9223   1
   8  -2  -5 201.783 15.9041   1
  -8  -2   5 249.145 10.9342   3
   8   2  -5 259.902 11.1231   3
   8   2  -5 226.612 10.8605   2
   8   2  -5 266.060 16.4117   1
  -8   2   5 244.567 10.7920   1
  -7  -2   5 210.107 9.81390   3
   7  -2  -5 218.750 8.60878   2
   7  -2  -5 225.016 9.83331   3
  -7  -2   5 220.771 9.31690   2
   7  -2  -5 211.743 8.55661   2
  -7  -2   5 222.103 14.9376   1
   7  -2  -5 219.154 11.3114   1
  -7   2   5 208.527 8.85249   1
   7   2  -5 227.612 10.0477   3
   7   2  -5 196.602 14.6636   1
   6  -2  -5 645.115 24.4506   3
   6  -2  -5 633.738 23.6120   2
   6  -2  -5 676.526 25.8415   1
  -6  -2   5 655.031 24.4074   3
  -6  -2   5 649.705 29.8317   1
  -6  -2   5 599.037 24.0728   2
   6   2  -5 673.701 29.5803   1
   6   2  -5 618.771 24.4107   3
   5  -2  -5 536.911 21.0744   1
   5  -2  -5 510.888 19.3223   2
  -5  -2   5 497.426 19.7646   2
  -5  -2   5 511.718 19.9254   3
  -5  -2   5 522.449 25.0015   1
   5   2  -5 519.852 20.7807   2
   5   2  -5 531.928 20.0126   3
   5   2  -5 531.740 25.0198   1
  -4  -2   5 1070.93 39.8543   2
   4  -2  -5 1095.00 40.7633   1
  -4  -2   5 1093.24 39.7887   3
  -4  -2   5 1128.05 45.2835   1
   4  -2  -5 1066.59 39.4491   2
   4   2  -5 1065.20 39.7979   3
   4   2  -5 1148.19 45.0033   1
   4   2  -5 1036.14 40.0273   2
  -3  -2   5 703.836 27.0296   2
  -3  -2   5 729.418 31.7204   1
   3  -2  -5 701.088 27.7263   1
  -3  -2   5 739.036 26.8396   3
   3  -2  -5 744.530 26.6627   2
   3   2  -5 718.029 31.3735   1
   3   2  -5 689.523 27.2045   2
   3   2  -5 751.177 26.8519   3
   2  -2  -5 9739.83 354.109   1
  -2  -2   5 9999.99 357.775   1
   2   2  -5 9974.71 357.601   1
   1  -2  -5 413.118 20.0603   1
  -1  -2   5 429.975 16.2679   3
  -1  -2   5 497.010 22.0264   1
   1  -2  -5 453.119 16.6249   2
  -1  -2   5 395.284 16.8375   2
   1   2  -5 433.579 16.3079   3
   1   2  -5 436.680 16.8814   2
   1   2  -5 414.084 20.7559   1
   0  -2  -5 693.488 26.5682   2
   0  -2   5 735.816 26.1524   3
   0  -2   5 754.098 31.2855   1
   0  -2  -5 723.126 28.2059   1
   0  -2   5 682.090 26.7439   2
   0  -2  -5 725.631 27.0390   3
   0   2  -5 707.788 26.8240   2
   0   2  -5 710.752 26.1532   3
   0   2  -5 726.293 30.8745   1
  -1  -2  -5 249.155 11.8378   1
   1  -2   5 244.236 10.0759   2
   1  -2   5 235.954 13.9072   1
   1  -2   5 242.845 9.14399   3
  -1  -2  -5 227.538 9.94900   2
  -1  -2  -5 247.995 10.3312   3
  -1   2  -5 236.142 10.1934   2
  -1   2  -5 240.187 9.17391   3
  -1   2  -5 227.301 13.5976   1
  -2  -2  -5 797.558 29.7804   3
  -2  -2  -5 787.197 31.7404   1
   2  -2   5 788.787 29.3583   2
   2  -2   5 804.704 33.7756   1
  -2   2  -5 771.261 29.7501   2
  -2   2  -5 808.590 33.7586   1
   3  -2   5 4.05252 1.90197   2
  -3  -2  -5 3.90396 2.17325   2
  -3  -2  -5 4.34995 3.59355   1
   3  -2   5 6.95446 4.61256   1
  -3  -2  -5 2.23795 2.47334   3
  -3   2  -5 6.34946 3.12512   2
  -3   2  -5 -0.3426 4.30121   1
   4  -2   5 739.605 31.7449   1
  -4  -2  -5 718.021 27.4637   2
  -4  -2  -5 752.510 27.7511   3
  -4  -2  -5 709.297 30.5595   1
   4  -2   5 742.691 27.2607   2
  -4   2  -5 716.500 31.6828   1
  -4   2  -5 741.427 31.6466   1
   5  -2   5 -2.1143 1.68935   2
  -5  -2  -5 0.29997 2.44298   3
  -5  -2  -5 -0.0317 2.46618   2
  -5  -2  -5 -3.1658 3.32076   1
  -5   2  -5 4.89734 4.25043   1
  -5   2  -5 2.88907 4.29462   1
  -6  -2  -5 446.282 22.0168   1
  -6  -2  -5 456.622 17.8284   2
  -6  -2  -5 455.914 18.2933   3
   6  -2   5 461.490 17.5865   2
  -6   2  -5 465.657 22.6607   1
  -6   2  -5 444.498 17.9772   2
  -6   2  -5 461.803 22.5676   1
   6   2   5 474.177 21.5679   1
  -7  -2  -5 254.386 10.8418   2
   7  -2   5 256.373 10.3827   2
  -7  -2  -5 245.953 11.1768   3
  -7  -2  -5 249.189 15.0859   1
   7   2   5 229.279 12.5270   3
  -7   2  -5 263.686 10.5839   2
  -7   2  -5 253.653 15.0600   1
  -7   2  -5 257.366 15.6632   1
   7   2   5 230.971 14.4161   1
  -8  -2  -5 3.75663 2.69346   2
  -8  -2  -5 6.73085 3.07280   3
  -8  -2  -5 4.70093 5.23006   1
   8  -2   5 10.4651 2.40788   2
   8   2   5 2.88703 3.16655   3
  -8   2  -5 9.63314 5.05237   1
  -8   2  -5 5.69093 2.27783   2
  -8   2  -5 3.45546 4.54446   1
   8   2   5 6.48323 4.78008   1
   9  -2   5 371.326 15.4557   2
  -9  -2  -5 410.967 16.0615   2
  -9  -2  -5 381.882 16.5809   3
  -9  -2  -5 422.303 21.9014   1
  -9   2  -5 411.666 21.8909   1
   9   2   5 415.063 21.2922   1
  -9   2  -5 375.457 16.5379   2
  -9   2  -5 411.282 21.5831   1
 -10  -2  -5 -1.2800 5.99850   1
  10  -2   5 -0.7270 2.19708   2
 -10  -2  -5 1.03510 2.70130   2
  10   2   5 5.45211 5.32173   1
 -10   2  -5 -4.3864 5.56796   1
 -10   2  -5 3.11456 5.61733   1
  10   2   5 -2.0984 3.43824   3
  11  -2   5 543.576 21.7241   2
 -11  -2  -5 564.227 22.3372   2
 -11  -2  -5 590.720 30.1880   1
 -11   2  -5 571.743 22.3186   2
 -11   2  -5 578.456 29.3375   1
  11   2   5 590.762 23.2662   3
 -11   2  -5 583.161 28.7220   1
  11   2   5 579.806 28.7013   1
 -12  -2  -5 -2.7970 6.95585   1
 -12  -2  -5 -4.7682 3.04865   2
  12  -2   5 -0.4003 2.08798   2
 -12   2  -5 0.04971 5.99524   1
  12   2   5 2.72038 6.32128   1
 -12   2  -5 -3.9459 2.24985   2
 -12   2  -5 1.78091 6.28228   1
  12   2   5 0.01267 3.66279   3
 -12   2  -5 0.21099 1.23553   3
 -13  -2  -5 176.433 8.89999   2
 -13  -2  -5 119.974 23.9348   1
  13  -2   5 165.267 7.74060   2
  13   2   5 183.764 10.2293   3
  13   2   5 168.914 14.9141   1
 -13   2  -5 159.640 8.07445   2
 -13   2  -5 160.332 14.3934   1
 -13   2  -5 159.564 6.60700   3
 -13   2  -5 160.584 14.4786   1
 -14  -2  -5 110.544 14.8138   1
 -14  -2  -5 116.259 7.37641   2
  14  -2   5 107.965 6.06332   2
 -14   2  -5 113.639 6.54825   2
 -14   2  -5 115.690 13.1784   1
 -14   2  -5 111.411 5.07573   3
  14   2   5 116.238 13.4780   1
  14   2   5 125.880 8.81725   3
 -14   2  -5 131.390 13.1711   1
  15  -2   5 22.0455 2.79679   2
 -15  -2  -5 23.0417 3.84900   2
 -15  -2  -5 25.0782 10.2737   1
 -15   2  -5 28.3905 3.24774   2
  15   2   5 19.1611 4.69236   3
 -15   2  -5 26.1108 8.47567   1
 -15   2  -5 21.2490 7.55524   1
  15   2   5 31.7010 7.88123   1
 -15   2  -5 24.3962 2.38384   3
 -16  -2  -5 -0.9877 8.75037   1
  16  -2   5 6.49248 2.21588   2
 -16  -2  -5 3.24749 3.52157   2
 -16   2  -5 9.37436 7.61361   1
  16   2   5 10.8349 6.36486   1
 -16   2  -5 6.46656 6.87421   1
  16   2   5 4.16654 4.12370   3
 -16   2  -5 4.12773 2.46985   2
 -17  -2  -5 0.14218 3.17080   2
  17  -2   5 -2.1737 1.81255   2
 -17  -2  -5 3.89986 8.08007   1
 -17   2  -5 -5.3555 6.51805   1
 -17   2  -5 10.8962 8.04565   1
  17   2   5 4.16499 4.43666   3
 -17   2  -5 -3.0256 1.70027   3
 -17   2  -5 -0.1627 2.28649   2
  17   2   5 -8.3235 6.18047   1
 -18  -2  -5 37.7364 4.56445   2
 -18  -2  -5 40.0228 11.9409   1
  18   2   5 56.3126 7.13163   3
  18   2   5 30.4223 9.61982   1
 -18   2  -5 38.7435 3.32854   3
 -18   2  -5 46.4705 4.70440   2
 -18   2  -5 32.0570 9.21148   1
 -18   2  -5 38.2119 10.4225   1
 -19  -2  -5 2.91223 3.57955   2
 -19  -2  -5 19.2650 10.7458   1
 -19   2  -5 -1.2595 8.88476   1
 -19   2  -5 4.81984 2.47069   2
 -19   2  -5 1.79235 8.61918   1
  19   2   5 5.14708 4.81361   3
 -19   2  -5 4.31229 1.90133   3
 -20  -2  -5 7.97882 3.70265   2
 -20  -2  -5 22.9110 13.1989   1
 -20   2  -5 5.48585 2.44911   2
 -20   2  -5 -12.660 10.2540   1
  20   2   5 2.34586 8.29821   1
  20   2   5 8.03137 10.3770   3
  21   2   5 115.884 10.0606   3
 -21   2  -5 61.7347 17.0183   1
 -22  -2  -5 2.98934 3.51645   2
 -22  -2  -5 -21.911 14.7305   1
  22   2   5 6.07845 4.83826   3
  22  -3  -5 15.8498 4.61283   3
 -22  -3   5 21.2763 16.1642   1
 -22  -3   5 10.5154 3.64157   2
 -22   3   5 6.83976 9.27899   1
  22   3  -5 7.34928 6.66627   3
  21  -3  -5 4.98805 4.30739   3
  21  -3  -5 13.8087 7.83119   1
 -21  -3   5 12.7690 14.3065   1
 -21   3   5 2.34011 6.79048   1
  21   3  -5 -23.377 9.35645   1
  21   3  -5 -0.5385 6.26220   3
  20  -3  -5 82.1463 8.04191   3
  20  -3  -5 56.2975 10.5763   1
 -20  -3   5 86.6179 17.4661   1
 -20   3   5 67.9233 8.99402   1
  20   3  -5 111.851 11.0533   3
  20   3  -5 55.5783 18.4601   1
 -19  -3   5 27.8715 11.8086   1
  19  -3  -5 11.9052 4.37532   3
  19  -3  -5 14.6097 6.69347   1
  19   3  -5 15.0945 8.60394   1
  19   3  -5 7.18624 8.06920   3
 -19   3   5 11.1520 5.62405   1
 -18  -3   5 57.0129 6.17338   2
  18  -3  -5 48.1788 8.73070   1
 -18  -3   5 51.8218 12.4793   1
  18  -3  -5 61.1301 7.03709   3
  18   3  -5 53.0112 6.95829   3
 -18   3   5 45.3976 6.62808   1
 -18   3   5 46.6431 6.18492   1
  18   3  -5 48.1811 10.9511   1
 -17  -3   5 7.66990 3.29697   2
  17  -3  -5 13.2205 4.31235   3
 -17  -3   5 18.1110 9.92139   1
  17  -3  -5 4.84895 5.58267   1
 -17   3   5 -2.7247 5.73878   1
  17   3  -5 -3.8220 5.83138   1
 -17   3   5 3.63007 3.69082   1
  17   3  -5 7.17468 5.07719   3
 -16  -3   5 9.13885 3.40267   2
  16  -3  -5 3.97249 3.78024   3
 -16  -3   5 32.2568 11.0775   1
  16  -3  -5 4.47228 5.30421   1
 -16   3   5 5.91552 3.48133   1
  16   3  -5 13.1989 8.16612   1
  16   3  -5 9.42122 5.34244   3
 -15  -3   5 5.86121 8.79801   1
  15  -3  -5 0.32409 4.90611   1
 -15  -3   5 9.56083 3.97416   2
  15  -3  -5 11.4628 3.91374   3
  15   3  -5 13.8993 7.27939   1
  15   3  -5 4.04298 4.45365   3
 -15   3   5 5.29097 3.02462   1
 -14  -3   5 56.5485 6.71361   2
  14  -3  -5 59.7640 6.39530   3
 -14  -3   5 42.6819 23.2017   1
  14  -3  -5 65.8620 8.62338   1
 -14   3   5 58.2424 4.31826   1
  14   3  -5 64.9215 7.99823   3
  14   3  -5 62.8557 11.0801   1
 -13  -3   5 4.83898 2.89823   2
  13  -3  -5 -1.7419 3.58133   3
 -13  -3   5 8.66665 8.35420   1
  13  -3  -5 -0.0522 4.28525   1
  13   3  -5 1.25960 4.06719   3
  13   3  -5 7.85703 6.45021   1
  12  -3  -5 24.5567 5.51960   1
  12  -3  -5 13.1028 4.58043   3
  12  -3  -5 15.4285 1.73532   2
 -12  -3   5 20.4624 3.67166   2
  12  -3  -5 15.8268 1.70588   2
 -12  -3   5 17.7341 8.62471   1
  12   3  -5 23.5983 12.4906   1
  12   3  -5 27.3797 4.93996   3
  12   3  -5 20.9816 3.30446   2
  11  -3  -5 150.405 6.48667   2
  11  -3  -5 157.849 6.52352   2
 -11  -3   5 129.833 16.1510   1
  11  -3  -5 151.205 10.5216   1
 -11  -3   5 165.222 8.46080   2
  11  -3  -5 157.072 8.53330   3
  11   3  -5 157.137 9.34805   3
  11   3  -5 142.051 8.13931   2
  11   3  -5 141.344 13.7429   1
  10  -3  -5 -2.8332 3.27857   1
 -10  -3   5 -2.7980 6.28567   1
  10  -3  -5 0.82378 1.71939   2
  10  -3  -5 2.17975 1.64518   2
 -10  -3   5 -1.3962 3.05845   2
  10   3  -5 -1.8565 5.21388   1
  10   3  -5 6.62119 3.92409   3
  10   3  -5 -2.2018 2.89283   2
  -9  -3   5 619.150 23.6337   2
   9  -3  -5 575.834 24.9225   1
   9  -3  -5 582.756 23.6259   3
   9  -3  -5 572.186 22.4784   2
   9  -3  -5 601.559 22.5057   2
  -9  -3   5 573.822 23.9762   3
  -9  -3   5 661.080 31.5738   1
   9   3  -5 613.091 23.5757   2
   9   3  -5 684.156 24.6490   3
   9   3  -5 583.224 29.8071   1
  -8  -3   5 151.172 14.2664   1
   8  -3  -5 153.144 6.94744   2
   8  -3  -5 152.893 8.24538   3
   8  -3  -5 148.560 6.91845   2
  -8  -3   5 153.024 8.55243   3
  -8  -3   5 163.940 8.32153   2
   8  -3  -5 144.235 8.65471   1
   8   3  -5 145.478 8.64400   3
   8   3  -5 147.162 8.06352   2
   8   3  -5 151.630 13.8800   1
  -7  -3   5 42.8742 5.27411   3
   7  -3  -5 33.9468 3.66032   2
   7  -3  -5 38.7831 3.96563   2
   7  -3  -5 34.2769 4.06247   3
  -7  -3   5 40.1252 9.14618   1
  -7  -3   5 45.4737 5.12825   2
   7  -3  -5 42.0691 4.50078   1
   7   3  -5 45.2067 4.82882   3
   7   3  -5 32.7288 3.70234   2
   7   3  -5 34.4338 7.86260   1
   6  -3  -5 104.600 5.70290   2
   6  -3  -5 105.476 6.43482   2
  -6  -3   5 109.908 6.69188   2
   6  -3  -5 94.2209 5.75143   1
  -6  -3   5 109.266 6.80162   3
  -6  -3   5 111.073 12.8425   1
   6   3  -5 113.780 6.75247   2
   6   3  -5 102.857 6.69043   3
   6   3  -5 99.9298 11.2408   1
   5  -3  -5 388.311 15.4786   1
   5  -3  -5 396.533 15.8496   2
  -5  -3   5 420.994 16.5086   2
  -5  -3   5 427.246 22.6092   1
  -5  -3   5 397.653 16.3218   3
   5   3  -5 392.077 21.3619   1
   5   3  -5 417.336 16.6195   2
   5   3  -5 407.746 16.3339   3
  -4  -3   5 662.710 30.1263   1
  -4  -3   5 599.359 23.5770   2
  -4  -3   5 635.157 23.4072   3
   4  -3  -5 587.325 23.1383   2
   4   3  -5 613.900 28.5144   1
   4   3  -5 622.058 23.7693   2
   4   3  -5 579.950 23.3007   3
   3  -3  -5 8.21528 2.92895   3
   3  -3  -5 10.1323 1.75612   1
   3  -3  -5 7.39482 1.69618   1
  -3  -3   5 7.23223 2.87873   2
   3  -3  -5 4.89597 2.23217   2
  -3  -3   5 5.13425 2.51090   3
  -3  -3   5 6.30950 5.65029   1
   3   3  -5 2.89230 2.31546   3
   3   3  -5 15.3722 6.13347   1
   3   3  -5 3.54353 2.75451   2
   2  -3  -5 1009.20 37.0347   2
  -2  -3   5 1003.66 36.7041   3
  -2  -3   5 1002.50 37.1927   2
   2  -3  -5 981.914 36.9682   1
   2  -3  -5 1020.76 36.9853   1
   2  -3  -5 960.378 37.2968   3
  -2  -3   5 1040.10 43.0101   1
   2   3  -5 983.243 41.9351   1
   2   3  -5 1023.04 37.3608   2
   2   3  -5 982.351 36.6896   3
  -1  -3   5 219.709 15.0840   1
   1  -3  -5 233.816 10.1361   1
  -1  -3   5 219.739 9.94959   2
   1  -3  -5 210.493 9.99516   3
   1  -3  -5 230.049 9.84990   2
   1   3  -5 197.979 13.7586   1
   1   3  -5 214.153 10.0074   2
   1   3  -5 206.666 8.99330   3
   0  -3  -5 44.1189 4.59876   2
   0  -3   5 39.2140 7.22403   1
   0  -3  -5 47.4294 5.18723   1
   0  -3   5 40.3373 4.71979   2
   0  -3  -5 35.2978 4.32664   3
   0  -3   5 41.9349 3.32834   3
   0   3  -5 35.1234 3.23127   3
   0   3  -5 34.0199 6.81261   1
   0   3  -5 39.4069 3.92162   2
   1  -3   5 467.705 17.7615   3
   1  -3   5 473.402 18.8842   2
   1  -3   5 498.778 24.0557   1
  -1  -3  -5 466.759 18.9147   2
  -1  -3  -5 467.174 19.2048   3
  -1  -3  -5 505.534 20.6299   1
  -1   3  -5 484.357 17.8127   3
  -1   3  -5 472.019 23.1282   1
  -1   3  -5 498.490 19.0793   2
  -2  -3  -5 429.690 19.4420   3
  -2  -3  -5 476.417 20.8914   1
   2  -3   5 473.910 18.5852   2
  -2  -3  -5 496.172 18.8421   2
  -2  -3  -5 467.985 18.6437   2
   2  -3   5 477.909 23.7098   1
   2  -3   5 463.779 17.2099   3
  -2   3  -5 483.100 18.7865   2
  -2   3  -5 481.147 17.3250   3
  -2   3  -5 473.055 23.0176   1
  -3  -3  -5 1025.32 37.8789   2
  -3  -3  -5 1040.90 40.8794   1
   3  -3   5 992.319 37.7318   2
  -3  -3  -5 1053.62 38.7633   3
   3  -3   5 1028.74 43.0261   1
  -3  -3  -5 1014.77 38.0073   2
  -3   3  -5 1028.68 42.1154   1
  -3   3  -5 939.803 41.9923   1
  -3   3  -5 1031.81 37.9346   2
   4  -3   5 563.438 21.3871   2
   4  -3   5 559.179 26.6391   1
  -4  -3  -5 528.909 21.5286   2
  -4  -3  -5 525.274 21.8488   3
  -4  -3  -5 543.937 25.0298   1
  -4  -3  -5 571.660 21.7468   2
  -4   3  -5 571.795 21.6195   2
  -4   3  -5 544.061 26.0144   1
  -4   3  -5 569.146 25.9712   1
  -5  -3  -5 87.8301 6.07407   2
  -5  -3  -5 75.9273 6.45281   3
   5  -3   5 81.4220 10.1753   1
  -5  -3  -5 74.5553 8.82133   1
  -5  -3  -5 81.3445 6.13874   2
   5  -3   5 83.3938 5.66587   2
  -5   3  -5 105.092 9.77598   1
  -5   3  -5 86.3644 6.04353   2
  -5   3  -5 95.9696 9.57986   1
  -6  -3  -5 7.62563 2.97685   2
  -6  -3  -5 -0.2998 4.80571   1
   6  -3   5 7.03880 2.56846   2
  -6  -3  -5 6.55661 2.88262   2
  -6   3  -5 5.47408 5.13220   1
  -6   3  -5 1.93241 2.62147   2
  -6   3  -5 6.20398 5.14164   1
  -7  -3  -5 61.9312 12.4235   1
   7  -3   5 60.5445 4.88131   2
  -7  -3  -5 55.0007 5.56997   2
  -7  -3  -5 49.9859 5.66815   2
  -7   3  -5 50.0091 7.82354   1
  -7   3  -5 48.9236 11.6110   1
  -7   3  -5 53.7689 5.26100   2
  -8  -3  -5 59.5317 5.95203   2
  -8  -3  -5 54.3901 9.06311   1
   8  -3   5 59.1556 4.99610   2
  -8  -3  -5 53.2045 8.20999   2
   8   3   5 60.0920 7.90014   1
  -8   3  -5 50.3898 8.34712   1
   8   3   5 54.5672 6.80867   3
  -8   3  -5 61.4351 8.63239   1
  -8   3  -5 56.8484 5.45021   2
  -9  -3  -5 862.168 38.9627   1
  -9  -3  -5 841.800 32.5335   2
   9  -3   5 821.841 31.7066   2
  -9  -3  -5 811.476 32.2416   2
  -9   3  -5 866.597 38.1050   1
  -9   3  -5 851.986 37.7993   1
  -9   3  -5 855.003 31.9957   2
   9   3   5 866.293 37.1264   1
   9   3   5 866.872 33.2261   3
 -10  -3  -5 39.5623 8.93168   1
  10  -3   5 36.6024 3.84712   2
 -10  -3  -5 39.1993 4.45295   2
 -10  -3  -5 31.1117 4.44074   2
 -10   3  -5 40.4777 8.40589   1
  10   3   5 55.1024 6.40403   3
 -10   3  -5 23.4816 7.32029   1
  10   3   5 33.8130 7.38510   1
 -10   3  -5 38.5591 4.23712   2
 -11  -3  -5 139.275 8.65967   2
 -11  -3  -5 164.834 15.5012   1
  11  -3   5 142.529 7.32397   2
 -11  -3  -5 129.394 10.5884   2
 -11   3  -5 139.230 13.7422   1
 -11   3  -5 143.072 7.84095   2
  11   3   5 140.152 9.46697   3
  11   3   5 149.004 12.8924   1
 -11   3  -5 136.425 13.1104   1
 -12  -3  -5 0.05898 3.47314   2
 -12  -3  -5 3.60824 6.60096   1
  12  -3   5 -0.1108 2.25524   2
 -12   3  -5 0.83322 2.68419   2
 -12   3  -5 4.51117 5.85918   1
 -12   3  -5 -5.7723 5.44611   1
  12   3   5 4.12695 4.17544   3
  12   3   5 -8.7335 4.83708   1
 -13  -3  -5 -0.5818 3.67465   2
 -13  -3  -5 2.32854 7.78568   1
  13  -3   5 -0.3372 2.17817   2
  13   3   5 0.97683 5.71537   1
 -13   3  -5 -6.0284 5.05379   1
 -13   3  -5 0.19257 2.64117   2
 -13   3  -5 -5.8491 5.80810   1
  13   3   5 -1.0634 4.00903   3
  14  -3   5 44.2136 4.32318   2
 -14  -3  -5 41.2120 10.4549   1
 -14  -3  -5 25.3204 4.35407   2
  14   3   5 49.5025 6.47154   3
 -14   3  -5 44.6280 4.15253   2
 -14   3  -5 35.4396 8.82343   1
  14   3   5 25.3630 8.01776   1
 -14   3  -5 43.6511 8.72480   1
  15  -3   5 1.70181 2.24827   2
 -15  -3  -5 0.92518 3.93610   2
 -15  -3  -5 3.98404 8.81075   1
  15   3   5 2.29700 4.97230   3
 -15   3  -5 -11.725 10.4388   1
 -15   3  -5 2.10145 2.73149   2
  15   3   5 -1.0483 6.16756   1
 -15   3  -5 -0.2427 6.59454   1
 -16  -3  -5 11.2228 9.26791   1
  16  -3   5 12.2397 2.52152   2
 -16  -3  -5 8.37571 3.90433   2
 -16   3  -5 9.25309 2.95878   2
  16   3   5 24.0553 5.80801   3
 -16   3  -5 6.61901 6.57031   1
  16   3   5 15.9550 14.5381   1
 -16   3  -5 7.77693 8.37970   1
 -17  -3  -5 1.24692 7.67790   2
  17  -3   5 2.54378 1.98866   2
  17   3   5 -1.1254 7.62106   1
 -17   3  -5 3.20629 2.67861   2
  17   3   5 3.13158 5.42542   3
 -17   3  -5 -6.3839 7.55785   1
  18  -3   5 -1.0333 1.65943   2
 -18  -3  -5 1.57149 10.6887   1
 -18  -3  -5 -1.3952 3.47657   2
 -18   3  -5 -1.7410 11.2859   1
 -18   3  -5 4.67633 2.72900   2
  18   3   5 2.57425 5.52937   3
 -19  -3  -5 22.9673 4.54228   2
 -19   3  -5 22.2118 3.06722   2
  19   3   5 28.3767 6.15387   3
 -20  -3  -5 66.6404 7.61603   2
  20   3   5 102.090 9.87412   3
 -20   3  -5 65.7909 5.20162   2
 -21  -3  -5 18.3893 4.66095   2
  21   3   5 25.0089 7.14998   3
  20  -4  -5 -5.2091 3.56445   3
  20   4  -5 -1.0604 5.99679   3
 -19  -4   5 10.3168 15.6647   1
  19  -4  -5 1.29407 3.84187   3
  19   4  -5 3.48603 5.97696   3
  18  -4  -5 -1.0321 6.81235   1
  18  -4  -5 7.12203 4.12534   3
 -18  -4   5 25.6742 13.6264   1
  18   4  -5 12.2050 6.32620   3
 -17  -4   5 3.27384 20.6856   1
  17  -4  -5 3.52428 5.98209   1
  17  -4  -5 -1.1314 3.49815   3
  17   4  -5 2.53474 5.63281   3
  17   4  -5 -13.765 8.07301   1
  16  -4  -5 25.1803 6.62942   1
  16  -4  -5 20.1129 4.43727   3
 -16  -4   5 36.0622 12.1620   1
  16   4  -5 17.8775 6.00349   3
  16   4  -5 14.3702 8.49835   1
 -15  -4   5 8.64606 10.7736   1
  15  -4  -5 19.5472 4.17440   3
  15  -4  -5 17.8419 5.78968   1
  15   4  -5 18.9891 12.6916   1
  15   4  -5 13.6751 5.85846   3
  14  -4  -5 1.02736 3.58794   3
  14  -4  -5 -1.6572 4.51351   1
 -14  -4   5 -3.0245 8.93170   1
  14  -4  -5 1.14312 1.36296   2
  14  -4  -5 0.36156 1.43516   2
  14   4  -5 1.33435 4.59506   3
  14   4  -5 -1.3306 6.14004   1
 -13  -4   5 30.7805 10.2089   1
  13  -4  -5 29.1387 3.21958   2
  13  -4  -5 31.5148 4.52999   3
  13  -4  -5 24.5558 5.54121   1
  13  -4  -5 26.0301 3.04657   2
  13   4  -5 27.1289 5.31357   3
  13   4  -5 32.7989 9.15497   1
  12  -4  -5 0.44607 2.46744   2
  12  -4  -5 -3.0864 3.05700   3
 -12  -4   5 -14.232 7.74601   1
  12  -4  -5 -4.7190 3.50485   1
  12   4  -5 -0.8957 6.16155   1
  12   4  -5 3.44373 4.25760   3
  11  -4  -5 34.4772 3.83000   2
  11  -4  -5 30.7812 4.83437   1
  11  -4  -5 40.3074 4.61169   3
 -11  -4   5 32.8643 10.4791   1
  11  -4  -5 30.4085 2.96925   2
  11   4  -5 26.7738 4.12227   2
  11   4  -5 13.9284 6.94469   1
  11   4  -5 36.2883 5.20687   3
  10  -4  -5 5.04499 3.04876   3
 -10  -4   5 -1.7658 6.31190   1
  10  -4  -5 2.89318 1.99667   2
  10  -4  -5 3.59245 3.66411   2
  10   4  -5 1.99765 5.78491   1
  10   4  -5 7.14539 3.82880   3
  10   4  -5 3.97653 2.96793   2
   9  -4  -5 0.56852 1.96619   2
   9  -4  -5 1.00328 3.21071   3
  -9  -4   5 8.38306 7.88633   1
   9  -4  -5 -0.0923 2.25971   2
   9   4  -5 -0.7819 3.09829   2
   9   4  -5 5.51578 3.58879   3
   9   4  -5 -3.2083 4.66213   1
  -8  -4   5 2.24673 6.57974   1
   8  -4  -5 -1.4101 1.99601   2
   8  -4  -5 -3.3417 3.61568   3
   8   4  -5 -1.6730 3.14368   2
   8   4  -5 0.16973 5.71585   1
   8   4  -5 -1.3127 3.60632   3
  -7  -4   5 -2.6816 7.17998   1
   7  -4  -5 10.7799 3.16092   3
  -7  -4   5 2.96457 3.38799   2
   7  -4  -5 8.49779 2.45766   2
   7   4  -5 6.70544 3.60819   3
   7   4  -5 3.12219 3.09966   2
   7   4  -5 12.4034 6.71655   1
  -6  -4   5 281.311 12.5177   3
  -6  -4   5 269.567 19.8144   1
   6  -4  -5 294.689 11.9299   2
  -6  -4   5 254.295 12.6493   2
   6  -4  -5 273.529 12.2100   3
   6   4  -5 266.435 13.7386   3
   6   4  -5 260.199 17.8253   1
   6   4  -5 276.016 12.9378   2
  -5  -4   5 139.005 14.6455   1
   5  -4  -5 134.559 7.29128   2
  -5  -4   5 116.926 7.84535   2
   5  -4  -5 123.538 7.51449   3
   5   4  -5 139.901 12.5503   1
   5   4  -5 137.315 8.31672   2
   4  -4  -5 4.59455 2.92468   3
  -4  -4   5 1.44070 2.87264   2
  -4  -4   5 5.30481 3.02826   3
  -4  -4   5 -0.1277 5.72660   1
   4  -4  -5 5.80824 2.68391   2
   4   4  -5 8.84953 3.36321   2
   4   4  -5 6.38768 5.83004   1
   4   4  -5 4.61184 3.05482   3
   3  -4  -5 81.6296 5.84868   2
  -3  -4   5 75.0770 5.53047   3
   3  -4  -5 67.9010 5.89943   3
  -3  -4   5 74.2411 10.7819   1
  -3  -4   5 68.1074 6.30545   2
   3   4  -5 72.3196 5.54471   3
   3   4  -5 78.0769 9.92539   1
   3   4  -5 83.4127 6.88722   2
  -2  -4   5 46.7180 8.50302   1
  -2  -4   5 27.4982 3.93642   2
  -2  -4   5 35.3955 4.27298   3
   2  -4  -5 20.9416 3.78693   3
   2  -4  -5 20.4916 3.23356   2
   2   4  -5 37.6555 4.67129   2
   2   4  -5 32.3898 4.15079   3
   2   4  -5 34.2878 7.01844   1
  -1  -4   5 -8.0409 5.29456   1
   1  -4  -5 -0.1824 2.60460   2
  -1  -4   5 -1.7878 2.15902   3
  -1  -4   5 2.41317 2.85238   2
   1   4  -5 1.62289 3.45854   2
   1   4  -5 -0.0950 2.22112   3
   1   4  -5 1.18327 4.57629   1
   0  -4  -5 27.9666 4.02944   1
   0  -4  -5 21.2108 3.69917   2
   0  -4   5 29.1726 2.91281   3
   0  -4   5 33.6008 8.06177   1
   0  -4   5 24.8508 3.59613   2
   0   4  -5 26.6754 6.58836   1
   0   4  -5 32.0365 4.57071   2
   0   4  -5 29.7056 3.55357   3
   1  -4   5 87.0588 11.0662   1
  -1  -4  -5 92.5677 9.02315   2
   1  -4   5 64.8180 4.05641   3
  -1  -4  -5 71.9513 6.90523   1
   1  -4   5 65.6719 6.09550   2
  -1   4  -5 60.2932 8.31839   1
  -1   4  -5 59.2067 6.62471   2
   2  -4   5 279.710 10.7488   3
   2  -4   5 285.086 12.8601   2
   2  -4   5 291.747 18.3741   1
  -2  -4  -5 284.840 12.9888   2
  -2  -4  -5 290.010 14.9680   1
  -2   4  -5 291.933 16.9507   1
  -2   4  -5 280.660 13.0533   2
  -2   4  -5 258.213 18.1158   1
   3  -4   5 392.905 21.1219   1
   3  -4   5 357.875 15.5768   2
  -3  -4  -5 354.736 18.1762   1
  -3  -4  -5 346.571 15.4272   2
  -3   4  -5 332.711 19.2403   1
  -3   4  -5 358.290 15.5270   2
  -4  -4  -5 18.1713 5.72834   1
   4  -4   5 34.5030 7.65135   1
   4  -4   5 21.6431 3.62006   2
  -4  -4  -5 18.1124 3.55272   2
  -4   4  -5 22.4578 7.27651   1
  -4   4  -5 19.8126 6.07510   1
  -4   4  -5 26.2358 4.15768   2
  -5  -4  -5 110.036 10.8475   1
   5  -4   5 108.020 7.02543   2
   5  -4   5 125.004 12.6080   1
  -5   4  -5 118.873 7.55967   2
  -5   4  -5 112.109 10.5931   1
  -5   4  -5 112.652 10.6896   1
  -6  -4  -5 -5.0930 3.49464   2
  -6  -4  -5 -10.423 4.15632   1
   6  -4   5 4.00706 2.72587   2
  -6   4  -5 10.3200 5.21591   1
  -6   4  -5 -0.8301 2.75696   2
  -6   4  -5 -0.0473 4.86432   1
  -7  -4  -5 28.1810 4.67080   2
  -7  -4  -5 32.8003 7.61840   1
   7  -4   5 33.7689 3.94633   2
  -7   4  -5 35.9332 6.77123   1
  -7   4  -5 24.2344 3.78777   2
  -7   4  -5 27.9964 6.44956   1
  -8  -4  -5 51.0368 5.25626   2
   8  -4   5 55.5471 5.33646   2
  -8  -4  -5 53.5683 9.52938   1
  -8   4  -5 48.0563 7.91465   1
  -8   4  -5 39.3161 4.52093   2
  -8   4  -5 43.6378 7.46384   1
  -9  -4  -5 26.0132 4.45876   2
  -9  -4  -5 40.8973 9.11276   1
   9  -4   5 25.5451 3.40415   2
  -9   4  -5 26.4928 3.85957   2
   9   4   5 41.1495 6.69509   1
  -9   4  -5 24.0140 6.73392   1
  -9   4  -5 34.6497 7.18933   1
 -10  -4  -5 3.99859 3.98764   2
 -10  -4  -5 12.6996 7.60068   1
  10  -4   5 2.22289 2.66895   2
 -10   4  -5 4.84908 5.88819   1
 -10   4  -5 2.43093 5.51132   1
 -10   4  -5 3.21288 3.03107   2
  10   4   5 9.06642 5.08593   1
 -11  -4  -5 5.92105 7.50030   1
  11  -4   5 0.82087 2.67755   2
 -11  -4  -5 1.59914 4.15974   2
  11   4   5 14.5877 4.90396   3
 -11   4  -5 5.02936 5.67931   1
 -11   4  -5 9.65896 6.21486   1
  11   4   5 0.28768 5.04175   1
 -11   4  -5 -1.3790 3.12260   2
 -12  -4  -5 12.6366 9.25002   2
 -12  -4  -5 15.5600 13.9046   1
  12  -4   5 4.70045 2.57382   2
  12   4   5 7.52571 10.3830   1
  12   4   5 2.99951 4.97881   3
 -12   4  -5 0.99473 3.03865   2
 -12   4  -5 8.59389 9.47659   1
 -12   4  -5 -3.1364 5.99091   1
 -13  -4  -5 19.2709 9.97051   1
 -13  -4  -5 33.8529 5.21407   2
  13  -4   5 21.8652 3.26402   2
 -13   4  -5 23.9601 3.85468   2
 -13   4  -5 23.3554 8.12207   1
  13   4   5 28.2043 5.88350   3
  13   4   5 30.0723 7.49162   1
 -13   4  -5 37.4494 7.78478   1
 -14  -4  -5 13.6883 9.90133   1
 -14  -4  -5 8.00585 4.26045   2
  14  -4   5 10.4946 2.66440   2
  14   4   5 2.50065 7.82246   1
 -14   4  -5 13.8011 3.45547   2
 -14   4  -5 9.29038 7.48780   1
  14   4   5 11.2501 5.83791   3
 -14   4  -5 0.16909 10.0625   1
 -15  -4  -5 -2.6734 4.45451   2
  15  -4   5 3.14061 2.35758   2
  15   4   5 8.78649 5.99813   3
 -15   4  -5 4.51570 7.67870   1
 -15   4  -5 2.65881 2.92498   2
  16  -4   5 -0.4603 2.38515   2
 -16  -4  -5 -4.3311 4.17934   2
  16   4   5 -7.0769 4.87410   3
 -16   4  -5 9.43452 8.62504   1
 -16   4  -5 3.75541 2.94300   2
 -17  -4  -5 12.5526 4.66445   2
  17   4   5 8.89426 5.70425   3
 -17   4  -5 18.4292 10.4580   1
 -17   4  -5 1.84051 2.91687   2
 -18  -4  -5 38.4071 5.78947   2
  18   4   5 58.2083 8.20774   3
 -18   4  -5 60.1715 18.4810   1
 -18   4  -5 46.2344 5.25108   2
 -19  -4  -5 4.25604 4.71103   2
 -19   4  -5 6.36719 2.99034   2
  19   4   5 16.0834 7.02699   3
  17  -5  -5 2.59864 3.49985   3
  17   5  -5 0.69314 5.51976   3
  16  -5  -5 14.1264 3.95979   3
  16   5  -5 11.1286 5.80637   3
  15  -5  -5 3.05234 3.62958   3
  15  -5  -5 5.06682 2.29655   2
  15   5  -5 7.95996 5.36192   3
  14  -5  -5 0.11938 3.31652   3
  14  -5  -5 -3.7399 1.84653   2
  14  -5  -5 0.26848 2.28953   2
  14   5  -5 -1.9738 6.44582   3
  13  -5  -5 1.43645 2.41239   2
  13  -5  -5 4.45847 3.37699   3
  13  -5  -5 2.53178 1.77697   2
  13   5  -5 2.52023 4.71765   3
 -12  -5   5 15.9757 11.1767   1
  12  -5  -5 3.64574 3.38686   3
  12  -5  -5 7.37334 2.14560   2
  12  -5  -5 9.69862 2.88176   2
  12   5  -5 5.41839 4.56367   3
  11  -5  -5 -1.6117 2.64765   2
 -11  -5   5 8.19357 9.07128   1
  11  -5  -5 -0.5046 3.24555   3
  11   5  -5 -4.5110 4.37576   3
  11   5  -5 6.55368 6.43033   1
 -10  -5   5 14.7082 10.3755   1
  10  -5  -5 7.76323 2.91961   2
  10  -5  -5 1.97607 3.21631   3
  10  -5  -5 1.49459 3.54013   2
  10   5  -5 3.35363 4.18302   3
  10   5  -5 -4.7196 5.75988   1
   9  -5  -5 10.5213 3.18735   2
   9  -5  -5 8.34248 2.55789   2
   9  -5  -5 1.22216 3.50970   3
   9   5  -5 3.39069 3.75024   2
   9   5  -5 -3.0273 5.65312   1
   9   5  -5 5.23733 4.27552   3
   8  -5  -5 0.76974 2.22307   2
   8  -5  -5 2.86443 3.34769   3
  -8  -5   5 2.31739 8.16275   1
   8   5  -5 9.63857 4.03890   3
   8   5  -5 7.38224 3.78406   2
   7  -5  -5 12.2283 3.84496   3
   7  -5  -5 12.0720 2.91637   2
  -7  -5   5 14.6747 8.44338   1
   7   5  -5 13.1727 5.49238   2
   7   5  -5 7.41076 6.13709   1
   7   5  -5 4.58521 3.69300   3
  -6  -5   5 7.55306 7.57705   1
   6   5  -5 0.88714 5.10273   1
   6   5  -5 4.17793 3.64229   3
  -5  -5   5 -4.1254 6.93387   1
   5   5  -5 0.79026 4.97145   1
   5   5  -5 2.98532 3.26329   3
   5   5  -5 7.32747 4.06127   2
  -4  -5   5 2.14656 3.14811   3
  -4  -5   5 13.6571 7.84518   1
   4   5  -5 2.75007 3.09784   3
   4   5  -5 2.67898 3.57033   2
   4   5  -5 -0.5022 4.63687   1
  -3  -5   5 -0.0072 3.03644   3
  -3  -5   5 -4.8187 6.18201   1
   3   5  -5 -3.2489 3.08293   3
   3   5  -5 -6.6287 3.39883   2
   3   5  -5 1.14853 4.90929   1
  -2  -5   5 7.09002 7.16362   1
  -2  -5   5 8.04286 2.90703   3
   2   5  -5 7.75634 3.12778   3
   2   5  -5 1.91884 3.92737   2
   2   5  -5 3.67295 4.93109   1
  -1  -5   5 35.5161 4.29812   3
  -1  -5   5 35.7455 9.04222   1
   1   5  -5 30.4279 5.29540   2
   1   5  -5 25.5794 6.45033   1
   0  -5   5 15.3863 7.42130   1
   0  -5  -5 9.37162 3.06475   1
   0  -5   5 9.35176 2.48435   3
   0   5  -5 10.5703 5.43869   1
   0   5  -5 8.25881 3.83519   2
   1  -5   5 16.9722 7.94725   1
   1  -5   5 19.7827 2.74921   3
  -1  -5  -5 16.7916 4.18067   1
  -1   5  -5 18.3611 6.08861   1
  -1   5  -5 17.6039 4.06571   2
  -1   5  -5 19.1533 5.55043   1
   2  -5   5 3.76577 1.60417   3
  -2  -5  -5 5.37931 3.84233   1
   2  -5   5 11.5381 7.06344   1
  -2   5  -5 -2.2686 4.39032   1
  -2   5  -5 9.13751 4.33296   2
  -2   5  -5 5.06088 4.88085   1
  -3  -5  -5 29.3159 5.79843   1
   3  -5   5 23.4859 7.80894   1
  -3   5  -5 20.3696 4.13731   2
  -3   5  -5 20.4230 5.60111   1
  -3   5  -5 36.6075 6.53944   1
  -4  -5  -5 9.11248 5.14708   1
   4  -5   5 2.64314 6.02745   1
  -4   5  -5 0.68024 3.57334   2
  -4   5  -5 3.46947 4.48038   1
  -4   5  -5 3.42037 4.88299   1
  -5  -5  -5 18.1390 7.00623   1
  -5   5  -5 18.1573 5.76695   1
  -5   5  -5 16.1120 5.32214   1
  -5   5  -5 15.7188 4.61252   2
  -6  -5  -5 31.4113 9.02811   1
  -6   5  -5 38.9984 6.74408   1
  -6   5  -5 45.4833 5.41149   2
  -6   5  -5 34.5809 6.75081   1
  -7  -5  -5 8.82972 4.45545   2
  -7  -5  -5 13.4563 6.31703   1
  -7   5  -5 -1.2416 4.88441   1
  -7   5  -5 3.47773 8.02126   1
  -7   5  -5 4.37479 3.99782   2
  -8  -5  -5 9.10265 6.81815   1
  -8  -5  -5 32.7688 5.68132   2
  -8   5  -5 24.6590 5.98073   1
  -8   5  -5 20.7195 6.48906   1
  -8   5  -5 24.9561 4.76345   2
  -9  -5  -5 94.2712 8.82661   2
  -9   5  -5 63.6631 8.91624   1
  -9   5  -5 96.3123 7.65262   2
 -10  -5  -5 10.7871 5.16604   2
 -10   5  -5 4.34682 3.48983   2
 -10   5  -5 5.13864 6.28574   1
 -11  -5  -5 -5.6511 4.56626   2
 -11   5  -5 -0.0194 3.73032   2
 -11   5  -5 -0.6824 5.80015   1
 -12  -5  -5 -2.8195 4.96153   2
 -12   5  -5 -11.757 5.66898   1
 -12   5  -5 -0.2440 3.38848   2
 -13  -5  -5 17.6099 5.71847   2
 -13   5  -5 0.34641 6.55795   1
 -13   5  -5 4.59939 3.75844   2
 -14  -5  -5 12.5167 5.17176   2
 -14   5  -5 3.04042 4.59534   2
 -14   5  -5 2.14271 7.04320   1
 -15  -5  -5 1.11064 4.72896   2
 -15   5  -5 -7.7086 8.03814   1
 -15   5  -5 5.53365 4.83022   2
 -16   5  -5 4.29216 7.00678   2
  13  -6  -5 1.91395 2.77196   2
  12  -6  -5 2.35207 3.02664   2
  12  -6  -5 -0.4028 3.27339   3
  12   6  -5 -5.9392 4.59869   3
  11  -6  -5 3.44614 3.52452   2
  11  -6  -5 2.69896 3.41892   3
  11   6  -5 6.65357 4.87432   3
  10  -6  -5 11.9294 4.14293   3
  10   6  -5 14.1538 8.25664   3
   9  -6  -5 5.39526 4.42099   2
   9  -6  -5 2.33211 3.56140   3
   9   6  -5 12.5380 5.00907   3
   8  -6  -5 -0.0772 3.64762   3
   8  -6  -5 1.46285 3.42390   2
   8   6  -5 -0.9206 4.30123   3
   7  -6  -5 2.11371 3.63881   3
   7   6  -5 -8.7146 3.50936   3
   6  -6  -5 7.67227 3.89179   3
   6   6  -5 2.89801 3.73384   3
   6   6  -5 -2.0893 3.95233   2
   5   6  -5 -2.1437 3.54813   3
   5   6  -5 4.06177 4.02031   2
   4   6  -5 -2.4962 3.80460   2
   3   6  -5 21.2201 5.39578   2
   2   6  -5 20.7049 6.35103   1
   2   6  -5 15.8609 5.23175   2
   1   6  -5 5.95519 5.08051   1
   1   6  -5 3.33779 4.02423   2
   0  -6   5 -0.7344 3.22590   3
   0   6  -5 7.47694 4.89759   2
   0   6  -5 -4.0494 4.20996   1
  -1  -6  -5 0.26566 2.39373   1
   1  -6   5 1.03619 1.91719   3
  -1   6  -5 6.05640 4.07407   2
  -1   6  -5 4.45463 4.51565   1
  -1   6  -5 -2.5288 3.91967   1
  -2   6  -5 4.19204 4.74617   2
  -2   6  -5 -0.3299 3.56773   1
  -2   6  -5 3.19226 3.65705   1
  -3   6  -5 0.46259 3.19144   1
  -3   6  -5 -2.3105 4.33402   2
  -4   6  -5 0.56396 3.88131   2
  -5  -6  -5 19.3539 5.55886   2
  -5   6  -5 5.35447 3.95713   2
  -6  -6  -5 18.7669 5.55802   2
  -6   6  -5 11.0894 4.21028   2
  -7  -6  -5 2.84857 5.30421   2
  -7   6  -5 -1.8577 3.59473   2
  -8  -6  -5 11.6271 5.14895   2
  -8   6  -5 5.05564 4.14885   2
  -9  -6  -5 -4.0134 4.44946   2
  -9   6  -5 -2.1646 4.03181   2
 -10  -6  -5 -3.4090 6.97011   2
 -10   6  -5 6.62007 3.80238   2
 -11  -6  -5 4.42358 5.40055   2
 -11   6  -5 4.56969 4.12093   2
  25   0  -6 14.6922 6.09095   3
  24   0  -6 2.69523 6.16431   3
  24   0  -6 -14.446 10.1257   1
  23   0  -6 185.761 12.6869   3
  23   0  -6 119.524 16.7585   1
 -23   0   6 131.826 19.3419   1
  22   0  -6 -0.3142 5.73819   3
 -22   0   6 17.9741 11.1309   1
  22   0  -6 0.48905 7.52111   1
 -21   0   6 -13.361 8.96554   1
  21   0  -6 -3.9377 4.86999   3
  21   0  -6 -1.0900 7.07090   1
  20   0  -6 13.7519 5.05745   3
  20   0  -6 16.5155 7.21842   1
 -20   0   6 -0.4812 7.99977   1
  19   0  -6 27.3327 5.68237   3
 -19   0   6 22.1982 9.60168   1
  19   0  -6 10.8605 6.93924   1
  18   0  -6 27.0301 7.91271   1
  18   0  -6 49.1233 6.56625   3
 -18   0   6 30.7574 9.65244   1
  17   0  -6 143.411 9.72032   3
  17   0  -6 113.192 13.2823   1
 -17   0   6 108.372 15.0404   1
  16   0  -6 -4.3527 8.89353   1
 -16   0   6 -8.3254 6.13145   1
  16   0  -6 2.15012 4.44478   3
  15   0  -6 310.999 13.4987   3
 -15   0   6 242.743 19.7599   1
  15   0  -6 210.897 18.6820   1
  14   0  -6 1024.54 51.0378   1
  14   0  -6 1120.63 41.2623   3
 -14   0   6 1086.19 48.1227   1
 -13   0   6 26.0456 8.48142   1
 -13   0   6 28.3119 2.21272   2
 -13   0   6 24.0203 6.96404   3
  13   0  -6 36.6617 7.67694   1
  13   0  -6 35.3677 4.96104   3
  12   0  -6 359.583 20.6224   1
 -12   0   6 356.520 20.9166   1
  12   0  -6 366.612 13.6713   2
 -12   0   6 377.924 15.7418   3
 -12   0   6 380.305 13.6662   2
  12   0  -6 369.865 16.1767   3
 -11   0   6 31.6416 7.22382   1
  11   0  -6 36.4149 7.04792   1
  11   0  -6 41.5553 2.73928   2
 -11   0   6 47.2458 2.86820   2
 -10   0   6 851.131 37.3360   1
 -10   0   6 881.023 31.2486   2
 -10   0   6 859.669 32.5408   3
  10   0  -6 826.157 37.3674   1
  10   0  -6 875.907 32.7518   3
  10   0  -6 875.371 31.2884   2
   9   0  -6 15.8145 3.36407   3
   9   0  -6 11.5020 4.98094   1
  -9   0   6 9.15565 3.00619   3
  -9   0   6 13.7843 1.62311   2
   9   0  -6 11.1200 1.60774   2
  -9   0   6 13.7951 5.47469   1
  -8   0   6 100.200 9.90427   1
  -8   0   6 91.3402 5.63050   3
   8   0  -6 96.4676 4.45139   2
  -8   0   6 96.5234 4.42592   2
   8   0  -6 97.2809 6.17731   3
   8   0  -6 91.4474 9.35141   1
  -7   0   6 671.205 24.4816   2
   7   0  -6 639.895 29.0909   1
   7   0  -6 674.726 24.5097   2
  -7   0   6 692.006 29.6626   1
  -7   0   6 670.286 25.3451   3
   7   0  -6 670.494 25.3849   3
  -6   0   6 895.240 34.1072   3
  -6   0   6 905.952 37.7924   1
   6   0  -6 916.074 33.4531   2
   6   0  -6 933.583 34.1865   3
  -6   0   6 939.939 33.4433   2
   6   0  -6 936.386 38.0613   1
   5   0  -6 458.444 17.4454   2
  -5   0   6 466.117 17.4343   2
  -5   0   6 472.813 21.9162   1
   5   0  -6 471.347 18.1540   3
  -5   0   6 464.908 18.0440   3
   5   0  -6 479.264 21.9030   1
  -4   0   6 806.355 28.8885   2
  -4   0   6 776.874 32.8257   1
   4   0  -6 798.384 28.8900   2
   4   0  -6 804.709 32.8645   1
   4   0  -6 765.392 29.3029   3
   3   0  -6 240.072 10.2274   3
  -3   0   6 253.328 9.83153   2
   3   0  -6 247.367 9.81565   2
  -3   0   6 245.152 13.8053   1
   3   0  -6 243.308 13.4758   1
   2   0  -6 715.469 30.2608   1
   2   0  -6 738.984 27.0112   3
  -2   0   6 743.456 26.7442   2
   2   0  -6 701.292 26.7105   2
  -2   0   6 738.478 30.3737   1
   1   0  -6 55.8194 7.37948   1
   1   0  -6 49.7496 3.71429   2
  -1   0   6 40.0046 5.72174   1
   1   0  -6 46.4188 3.86862   3
  -1   0   6 45.5571 3.51790   2
   0   0   6 318.710 15.8384   1
   0   0  -6 325.111 16.1924   1
   0   0  -6 330.257 12.6559   2
   0   0   6 323.094 12.6221   2
   1   0   6 302.934 15.4046   1
  -1   0  -6 325.549 16.2184   1
  -1   0  -6 306.745 12.2307   2
   1   0   6 308.197 12.1616   2
  -2   0  -6 2271.75 85.5562   1
  -3   0  -6 2399.18 83.5201   1
  -3   0  -6 1958.25 80.1198   3
  -3   0  -6 2232.81 83.0399   1
  -4   0  -6 2022.09 75.9016   1
   4   0   6 2014.47 71.4015   2
  -4   0  -6 2005.54 75.7664   1
  -4   0  -6 1876.76 71.8468   3
  -5   0  -6 1187.23 43.4281   3
  -5   0  -6 1224.69 48.3218   1
  -5   0  -6 1160.64 54.0722   1
  -5   0  -6 1193.71 43.5103   2
  -6   0  -6 -0.0917 1.81179   3
   6   0   6 -0.1035 1.85328   2
  -6   0  -6 -1.4331 3.78973   1
  -6   0  -6 -3.0116 3.83569   1
  -6   0  -6 2.36346 2.39433   2
  -7   0  -6 249.883 9.94141   3
  -7   0  -6 242.700 14.9691   1
  -7   0  -6 227.323 10.6682   2
   7   0   6 232.622 9.84181   2
  -8   0  -6 735.925 28.2515   3
   8   0   6 767.777 28.2361   2
  -8   0  -6 759.834 28.3056   2
  -8   0  -6 776.165 34.3922   1
  -9   0  -6 780.077 35.2900   1
  -9   0  -6 758.445 28.9321   3
   9   0   6 787.281 28.8680   2
  10   0   6 57.2811 4.38570   2
 -10   0  -6 50.7394 9.00810   1
  10   0   6 64.9549 9.04678   1
 -10   0  -6 58.8787 4.72179   3
 -10   0  -6 59.9780 4.96955   2
 -11   0  -6 885.794 38.8500   1
 -11   0  -6 811.893 30.7963   3
  11   0   6 807.070 30.8069   3
  11   0   6 774.876 37.1918   1
  11   0   6 812.937 30.5541   2
 -11   0  -6 833.771 30.6659   2
  12   0   6 674.492 26.2636   2
 -12   0  -6 699.446 26.3626   2
  12   0   6 704.793 26.6431   3
  12   0   6 649.187 33.3038   1
 -12   0  -6 735.823 34.6389   1
 -12   0  -6 718.618 26.7299   3
 -13   0  -6 103.159 12.9680   1
  13   0   6 105.550 6.63398   3
 -13   0  -6 103.655 6.78770   3
 -13   0  -6 106.310 6.30152   2
  13   0   6 116.588 12.7847   1
  14   0   6 224.132 10.7295   3
 -14   0  -6 226.740 10.8903   3
  14   0   6 210.983 17.1286   1
 -14   0  -6 256.891 18.8964   1
 -14   0  -6 242.032 10.2957   2
  15   0   6 58.7300 11.1048   1
 -15   0  -6 79.9103 12.9955   1
 -15   0  -6 54.4776 4.99530   2
 -15   0  -6 57.0013 5.82861   3
  15   0   6 56.0499 6.19039   3
  16   0   6 3.70805 6.51499   1
 -16   0  -6 1.30894 2.48265   2
 -16   0  -6 8.57141 7.84335   1
  16   0   6 -0.0741 3.00409   3
 -17   0  -6 218.034 20.4727   1
 -17   0  -6 185.589 9.14774   2
  17   0   6 180.730 19.7906   1
  17   0   6 197.825 10.0013   3
 -18   0  -6 14.8197 9.36410   1
  18   0   6 16.9362 3.95716   3
 -18   0  -6 12.0491 3.02274   2
  18   0   6 16.8951 7.72859   1
 -19   0  -6 204.961 21.8706   1
 -19   0  -6 189.387 9.26823   2
  19   0   6 190.328 10.3838   3
  19   0   6 188.908 18.4062   1
  20   0   6 290.927 13.9703   3
 -20   0  -6 295.085 12.7957   2
 -20   0  -6 320.976 27.1095   1
  20   0   6 287.122 24.0554   1
 -21   0  -6 19.3844 17.7679   1
  21   0   6 8.44781 3.83330   3
 -21   0  -6 1.14288 2.87315   2
  21   0   6 -0.7960 8.35735   1
  22   0   6 21.1347 4.62704   3
  22   0   6 8.98892 11.0679   1
 -22   0  -6 8.83859 14.2721   1
 -22   0  -6 16.3276 3.33860   2
 -23   0  -6 145.845 7.90426   2
  23   0   6 106.548 18.5335   1
  24  -1  -6 47.3525 6.71787   3
  24   1  -6 54.5223 7.93002   3
  24   1  -6 43.5802 13.5790   1
 -23  -1   6 0.27039 12.8359   1
  23  -1  -6 16.9701 8.53441   1
  23  -1  -6 -7.9405 8.52864   3
  23   1  -6 4.01406 6.41719   3
  23   1  -6 -3.9366 8.82960   1
 -22  -1   6 -10.255 11.2689   1
  22  -1  -6 7.07201 8.83893   1
  22  -1  -6 2.25740 5.15691   3
 -22   1   6 -5.4923 9.87246   1
  22   1  -6 3.94157 5.56271   3
  22   1  -6 5.36601 8.71520   1
  21  -1  -6 -0.4998 5.14265   3
 -21  -1   6 -7.9914 9.07536   1
 -21   1   6 -0.8308 8.21764   1
  21   1  -6 9.79278 8.25526   1
  21   1  -6 7.55922 5.64780   3
  20  -1  -6 41.6830 6.54482   3
  20  -1  -6 18.0897 7.26104   1
 -20  -1   6 19.8108 11.4786   1
  20   1  -6 30.0690 9.31195   1
 -20   1   6 13.1389 9.32219   1
  20   1  -6 40.7211 6.46785   3
 -19  -1   6 8.27360 9.20933   1
  19  -1  -6 1.69676 4.98548   3
  19  -1  -6 5.29529 6.34892   1
 -19  -1   6 -0.8049 1.29252   2
 -19  -1   6 1.06043 1.30342   2
  19   1  -6 8.19347 7.46732   1
  19   1  -6 5.40141 4.99393   3
 -19   1   6 -1.5238 6.81007   1
 -18  -1   6 17.6157 9.36822   1
  18  -1  -6 5.25699 4.90398   3
  18  -1  -6 1.53328 5.26075   1
 -18  -1   6 2.09544 1.59443   2
 -18   1   6 6.09835 7.44252   1
  18   1  -6 2.58447 5.22405   3
  18   1  -6 3.50168 6.52744   1
 -17  -1   6 63.7037 12.0610   1
  17  -1  -6 55.0309 9.81608   1
  17  -1  -6 58.6381 6.46214   3
 -17  -1   6 54.5354 3.76349   2
  17   1  -6 44.5824 6.13096   3
  17   1  -6 43.6327 9.75854   1
 -17   1   6 47.0653 9.60615   1
 -16  -1   6 -0.1828 7.49892   1
  16  -1  -6 0.74233 4.04786   3
 -16  -1   6 0.21574 1.86424   2
  16  -1  -6 4.78650 5.86872   1
  16   1  -6 -1.5676 6.26059   1
 -16   1   6 -13.227 5.42601   1
  16   1  -6 0.21139 4.82445   3
  15  -1  -6 38.0228 5.16316   3
 -15  -1   6 40.5225 9.75298   1
 -15  -1   6 53.4320 3.82417   2
  15  -1  -6 36.2291 7.93732   1
 -15   1   6 36.7661 8.30902   1
  15   1  -6 51.3703 5.91687   3
  15   1  -6 39.8441 8.59511   1
 -14  -1   6 3.39945 7.33490   1
 -14  -1   6 -0.6613 1.77351   2
  14  -1  -6 0.31825 4.14727   3
  14  -1  -6 4.28216 5.18164   1
 -14   1   6 -5.4704 5.16291   1
  14   1  -6 0.11410 4.18134   3
  14   1  -6 -0.5591 5.66063   1
 -13  -1   6 13.9240 7.75410   1
  13  -1  -6 13.1848 5.48378   1
 -13  -1   6 19.3529 2.36772   2
  13  -1  -6 16.5826 4.26158   3
  13   1  -6 16.3106 7.23896   1
 -13   1   6 11.2136 5.84864   1
 -13   1   6 25.8708 4.50543   3
  13   1  -6 23.7906 2.31730   2
  13   1  -6 17.5101 4.49723   3
  12  -1  -6 173.358 13.0407   1
  12  -1  -6 160.768 9.42658   3
 -12  -1   6 165.567 7.28877   2
 -12  -1   6 158.082 14.9774   1
 -12  -1   6 144.683 9.90713   3
  12   1  -6 177.395 9.73272   3
  12   1  -6 170.056 7.25658   2
  12   1  -6 156.392 14.0458   1
 -12   1   6 172.247 12.9511   1
 -12   1   6 157.291 8.91592   3
 -11  -1   6 445.930 27.1798   1
 -11  -1   6 465.870 19.0352   3
 -11  -1   6 469.896 17.6290   2
  11  -1  -6 474.259 22.9121   1
  11   1  -6 448.458 24.9885   1
  11   1  -6 480.738 19.1682   3
  11   1  -6 467.092 17.6263   2
 -11   1   6 458.005 22.7051   1
  10  -1  -6 719.881 31.0647   1
 -10  -1   6 704.227 27.3556   3
  10  -1  -6 709.429 26.8751   3
 -10  -1   6 715.569 25.8254   2
  10  -1  -6 715.862 25.2205   2
  10   1  -6 705.752 25.8804   2
 -10   1   6 696.320 30.3638   1
  10   1  -6 685.948 32.6166   1
  10   1  -6 626.930 28.6760   3
   9  -1  -6 76.8638 8.37179   1
  -9  -1   6 91.8063 12.6940   1
   9  -1  -6 77.9340 5.93395   3
  -9  -1   6 75.6126 4.55421   2
  -9  -1   6 87.0242 6.08256   3
   9  -1  -6 79.7680 3.73614   2
   9   1  -6 87.5432 6.43165   3
   9   1  -6 74.4449 9.34775   1
   9   1  -6 83.7052 4.59325   2
  -9   1   6 89.9338 8.56592   1
  -8  -1   6 793.217 29.7439   2
   8  -1  -6 798.134 29.3555   2
  -8  -1   6 839.213 36.8948   1
  -8  -1   6 817.292 30.5053   3
   8  -1  -6 813.503 30.5243   3
   8  -1  -6 817.942 33.9338   1
   8   1  -6 778.232 30.5247   3
   8   1  -6 818.879 29.8392   2
   8   1  -6 833.653 39.5249   1
  -8   1   6 814.213 33.4342   1
   7  -1  -6 316.437 12.1495   2
   7  -1  -6 327.236 16.2303   1
  -7  -1   6 319.009 18.0566   1
  -7  -1   6 332.974 13.2935   3
   7  -1  -6 335.559 13.4209   3
  -7  -1   6 328.756 12.5618   2
   7   1  -6 305.265 19.9837   1
   7   1  -6 308.782 13.2768   3
  -7   1   6 308.238 12.1215   2
   7   1  -6 331.276 12.6330   2
  -7   1   6 334.089 15.8379   1
   6  -1  -6 413.955 16.8938   3
  -6  -1   6 419.603 16.8125   3
   6  -1  -6 475.947 19.9031   1
  -6  -1   6 450.089 22.1651   1
  -6  -1   6 432.046 16.3065   2
   6  -1  -6 429.658 16.0347   2
  -6   1   6 430.016 15.9916   2
   6   1  -6 417.404 16.8463   3
   6   1  -6 418.186 21.3603   1
   6   1  -6 430.673 16.3794   2
  -6   1   6 427.430 18.9948   1
  -5  -1   6 14.4483 2.68227   3
   5  -1  -6 4.73301 2.68554   3
  -5  -1   6 8.35413 2.09749   2
   5  -1  -6 8.06821 3.75596   1
  -5  -1   6 6.56427 5.00447   1
   5  -1  -6 3.68995 1.58713   2
   5   1  -6 13.5183 2.61795   3
   5   1  -6 4.55508 4.50308   1
  -5   1   6 10.0028 3.57531   1
   5   1  -6 6.42992 2.10908   2
  -5   1   6 12.7662 1.64049   2
   4  -1  -6 3178.58 116.272   3
  -4  -1   6 3328.92 120.887   1
  -4  -1   6 3210.10 116.065   3
   4  -1  -6 3284.14 118.778   1
  -4   1   6 3276.48 118.160   1
   4   1  -6 3138.17 120.539   1
  -3  -1   6 193.548 8.23610   2
   3  -1  -6 191.141 10.7660   1
  -3  -1   6 178.919 8.40986   3
  -3  -1   6 203.587 12.9747   1
   3  -1  -6 197.534 8.15465   2
   3   1  -6 201.376 12.8045   1
   3   1  -6 199.719 8.35068   2
  -3   1   6 202.373 8.03493   2
  -3   1   6 189.564 10.1708   1
   3   1  -6 195.322 8.46861   3
  -2  -1   6 1.72499 1.95454   2
   2  -1  -6 3.32981 3.43884   1
   2  -1  -6 5.99642 2.14189   2
  -2  -1   6 1.60111 4.56463   1
  -2   1   6 2.39360 1.56603   2
   2   1  -6 5.51020 5.00596   1
   2   1  -6 4.75523 1.94863   2
  -2   1   6 -0.2282 2.95111   1
   2   1  -6 4.50042 2.07582   3
   1  -1  -6 246.621 10.2331   2
   1  -1  -6 257.084 13.0734   1
  -1  -1   6 259.024 14.8441   1
  -1  -1   6 256.960 10.3183   2
   1   1  -6 242.528 14.4646   1
  -1   1   6 238.945 10.1117   2
   1   1  -6 272.362 10.4274   2
   1   1  -6 262.474 10.1902   3
   0  -1   6 0.19609 1.75919   2
   0  -1  -6 3.40564 3.48502   1
   0  -1   6 1.71648 5.02664   1
   0  -1  -6 3.40583 2.02642   2
   0   1  -6 1.79731 1.87913   2
   0   1  -6 0.47842 1.69428   3
   0   1  -6 -0.6635 5.13067   1
   0   1   6 3.33370 1.77435   2
  -1  -1  -6 179.827 7.81951   2
  -1  -1  -6 179.942 10.6435   1
   1  -1   6 169.025 7.60619   2
   1  -1   6 179.642 13.9071   1
   1   1   6 172.876 7.52443   2
  -1   1  -6 176.432 7.23885   3
  -1   1  -6 172.551 7.72147   2
  -1   1  -6 176.802 13.2781   1
   2  -1   6 922.536 37.2279   1
  -2  -1  -6 868.459 33.0061   3
   2  -1   6 876.801 32.7374   2
  -2  -1  -6 865.404 32.7608   2
  -2  -1  -6 869.300 35.9707   1
  -2  -1  -6 922.951 36.2094   1
  -2   1  -6 903.343 32.3749   3
   2   1   6 903.083 32.7964   2
  -2   1  -6 908.825 37.2974   1
  -2   1  -6 883.168 32.7706   2
   3  -1   6 101.736 6.10147   2
   3  -1   6 113.971 9.52263   1
  -3  -1  -6 116.575 8.49922   1
  -3  -1  -6 110.574 9.34513   1
  -3  -1  -6 106.926 5.93196   3
  -3  -1  -6 110.615 5.73642   2
  -3   1  -6 111.326 5.59847   2
  -3   1  -6 97.1778 9.27812   1
  -4  -1  -6 781.151 34.5892   2
  -4  -1  -6 929.335 33.6277   3
   4  -1   6 932.877 34.2164   2
  -4  -1  -6 956.506 37.4982   1
  -4   1  -6 950.164 38.2347   1
  -4   1  -6 910.828 33.3121   2
  -4   1  -6 899.622 38.1261   1
  -4   1  -6 909.077 32.8027   3
   4   1   6 877.046 33.2891   2
  -5  -1  -6 867.182 31.2116   2
  -5  -1  -6 828.744 31.1363   3
   5  -1   6 837.175 30.7786   2
  -5  -1  -6 862.656 35.5905   1
   5   1   6 850.838 30.8927   2
  -5   1  -6 742.371 30.9516   2
  -5   1  -6 870.255 36.0533   1
  -5   1  -6 816.263 35.5776   1
  -5   1  -6 838.010 30.3182   3
  -6  -1  -6 3.31961 2.59195   3
  -6  -1  -6 -1.1549 4.19312   1
  -6  -1  -6 2.06425 2.36149   2
   6  -1   6 3.07556 1.83799   2
  -6   1  -6 4.41200 4.76209   1
  -6   1  -6 2.25893 1.42928   3
  -6   1  -6 -2.9784 4.40575   1
   6   1   6 2.98380 1.88217   2
  -7  -1  -6 195.646 9.23105   3
  -7  -1  -6 214.759 11.1211   2
  -7  -1  -6 195.463 13.6199   1
   7  -1   6 203.947 8.77427   2
  -7   1  -6 202.867 13.6315   1
  -7   1  -6 206.197 8.96500   2
  -7   1  -6 206.631 8.20369   3
  -7   1  -6 203.209 13.9329   1
  -8  -1  -6 472.680 18.9515   3
   8  -1   6 489.302 18.4381   2
  -8  -1  -6 490.630 18.7098   2
  -8  -1  -6 496.101 24.3579   1
  -8   1  -6 472.358 17.9540   3
  -8   1  -6 480.013 24.4256   1
   8   1   6 453.097 23.3046   1
  -8   1  -6 486.357 18.5455   2
  -8   1  -6 488.346 28.0312   1
  -9  -1  -6 882.049 38.8598   1
  -9  -1  -6 864.269 32.7201   3
  -9  -1  -6 875.210 32.3712   2
   9  -1   6 853.630 32.1185   2
   9   1   6 873.160 32.8227   3
   9   1   6 896.149 38.2413   1
  -9   1  -6 868.396 31.7583   3
  -9   1  -6 787.059 48.8788   1
  -9   1  -6 886.420 38.6126   1
 -10  -1  -6 382.323 15.7733   3
 -10  -1  -6 398.068 21.8610   1
  10  -1   6 350.257 14.4867   2
 -10  -1  -6 376.091 14.9229   2
  10   1   6 336.474 20.2486   1
 -10   1  -6 368.307 21.4905   1
 -10   1  -6 345.439 20.4720   1
 -10   1  -6 369.851 14.7662   2
 -11  -1  -6 334.655 15.3031   3
 -11  -1  -6 397.151 22.4624   1
  11  -1   6 369.428 14.5158   2
 -11  -1  -6 361.603 14.9228   2
  11   1   6 379.551 21.3612   1
  11   1   6 364.795 15.4909   3
 -11   1  -6 362.837 14.2138   3
 -11   1  -6 380.911 22.0018   1
 -11   1  -6 382.084 14.7173   2
 -11   1  -6 316.370 20.4030   1
  12  -1   6 442.785 16.7882   2
 -12  -1  -6 451.362 25.1585   1
 -12  -1  -6 399.227 17.6528   3
 -12  -1  -6 454.221 17.2360   2
 -12   1  -6 424.376 16.8729   2
  12   1   6 414.713 23.7549   1
 -12   1  -6 465.200 25.3679   1
 -12   1  -6 415.922 23.7155   1
 -12   1  -6 421.118 16.4928   3
  12   1   6 394.189 17.9410   3
 -13  -1  -6 3.62532 7.47999   1
 -13  -1  -6 8.76389 3.25963   2
  13  -1   6 6.85805 2.35025   2
 -13   1  -6 10.5276 2.70608   2
 -13   1  -6 -7.2004 6.96575   1
  13   1   6 -1.3054 5.89268   1
 -13   1  -6 1.73808 2.41267   3
  13   1   6 8.91737 3.44461   3
 -13   1  -6 14.9280 6.90590   1
 -14  -1  -6 7.76601 3.03231   2
  14  -1   6 10.5858 2.50485   2
 -14  -1  -6 20.4144 8.43549   1
 -14   1  -6 15.4405 2.93327   2
 -14   1  -6 11.5996 7.96147   1
 -14   1  -6 12.4205 2.70350   3
 -14   1  -6 17.9221 8.37299   1
  14   1   6 21.0554 8.47072   1
  14   1   6 16.5658 4.01273   3
 -15  -1  -6 1.02009 2.72490   2
  15  -1   6 1.30960 2.04747   2
 -15  -1  -6 2.59521 8.41540   1
 -15   1  -6 0.59545 2.38901   2
 -15   1  -6 0.74834 7.42379   1
  15   1   6 -5.5607 5.34151   1
  15   1   6 -0.5905 3.62045   3
 -15   1  -6 0.75437 6.47177   1
 -15   1  -6 -1.2651 2.34274   3
 -16  -1  -6 90.2063 6.47442   2
 -16  -1  -6 89.4852 16.1098   1
  16   1   6 112.812 13.2336   1
 -16   1  -6 103.012 13.9133   1
 -16   1  -6 88.6008 5.84420   2
 -16   1  -6 72.0449 11.5123   1
 -16   1  -6 84.1422 5.75414   3
  16   1   6 91.9032 7.56356   3
 -17  -1  -6 96.3632 7.01991   2
 -17  -1  -6 103.135 15.3463   1
  17   1   6 106.706 14.4964   1
  17   1   6 110.437 8.07876   3
 -17   1  -6 82.5642 12.7926   1
 -17   1  -6 77.1969 13.0650   1
 -17   1  -6 111.200 9.40313   3
 -17   1  -6 102.652 6.31315   2
 -18  -1  -6 29.4636 4.00743   2
 -18  -1  -6 25.9927 10.7304   1
 -18   1  -6 30.3711 3.57119   2
  18   1   6 43.7452 10.5124   1
 -18   1  -6 24.6557 9.69396   1
 -18   1  -6 30.8198 3.76068   3
 -18   1  -6 19.7432 10.6805   1
  18   1   6 37.9407 5.32912   3
 -19  -1  -6 -3.2343 9.18654   1
 -19  -1  -6 10.7496 3.41862   2
 -19   1  -6 12.4597 2.90576   2
 -19   1  -6 -6.9999 8.30289   1
  19   1   6 12.0429 7.67507   1
  19   1   6 9.28421 4.16110   3
 -20  -1  -6 21.2168 3.76460   2
 -20  -1  -6 21.6764 13.0820   1
  20   1   6 35.7657 5.85152   3
 -20   1  -6 25.1512 3.38618   2
 -20   1  -6 15.4247 9.05980   1
  20   1   6 26.1682 10.0234   1
 -20   1  -6 19.7488 11.9829   1
 -21  -1  -6 3.66584 3.08560   2
 -21  -1  -6 -17.993 13.1226   1
 -21   1  -6 5.11643 2.61941   2
  21   1   6 0.10018 8.95675   1
 -21   1  -6 -14.805 13.1732   1
  21   1   6 6.99228 4.13169   3
 -22  -1  -6 6.42086 3.26499   2
 -22  -1  -6 4.13040 16.1332   1
 -22   1  -6 17.8642 3.05786   2
  22   1   6 18.7956 5.26707   3
  24  -2  -6 -3.9458 4.86931   3
  24   2  -6 2.24842 6.55212   3
  24   2  -6 10.7647 10.9148   1
  23  -2  -6 -0.3311 6.05187   3
 -23  -2   6 -22.223 15.0585   1
  23   2  -6 2.80876 6.57503   3
 -23   2   6 10.5389 12.7077   1
  23   2  -6 6.39674 14.9231   1
  22  -2  -6 5.64411 4.93070   3
  22  -2  -6 11.1349 8.29158   1
 -22  -2   6 15.5669 16.3408   1
 -22   2   6 15.1987 10.3747   1
  22   2  -6 17.8442 10.4408   1
  22   2  -6 27.5654 6.48336   3
 -21  -2   6 16.9260 15.4921   1
  21  -2  -6 -2.7996 7.02503   1
 -21  -2   6 17.4120 2.70812   2
  21  -2  -6 12.3450 4.90458   3
 -21   2   6 -0.4187 8.59574   1
  21   2  -6 18.1429 6.00689   3
  21   2  -6 18.3415 9.41929   1
  20  -2  -6 -1.9726 5.96909   1
  20  -2  -6 7.52668 4.80840   3
 -20  -2   6 6.10829 2.44225   2
 -20  -2   6 2.90360 10.6131   1
  20   2  -6 6.11543 7.21872   1
  20   2  -6 0.15319 6.01894   3
 -20   2   6 4.31877 7.52921   1
  19  -2  -6 -4.7828 5.21891   1
  19  -2  -6 -0.1148 4.62338   3
 -19  -2   6 -13.228 8.68294   1
 -19  -2   6 4.25963 2.47405   2
  19   2  -6 -1.7851 4.95948   3
  19   2  -6 -1.0876 8.09237   1
 -19   2   6 -4.1357 6.17243   1
  18  -2  -6 17.6124 4.63098   3
 -18  -2   6 24.2226 3.14171   2
 -18  -2   6 15.9258 9.92191   1
  18  -2  -6 16.2444 6.34364   1
  18   2  -6 27.5853 5.98588   3
 -18   2   6 21.5021 7.40449   1
  18   2  -6 22.2796 8.72374   1
 -17  -2   6 -4.0812 7.78663   1
 -17  -2   6 2.61003 2.51943   2
  17  -2  -6 1.42782 4.13158   3
  17  -2  -6 10.1258 5.55460   1
  17   2  -6 3.27445 5.02122   3
  17   2  -6 -1.9502 7.22167   1
 -17   2   6 -2.6382 5.24492   1
 -16  -2   6 15.8912 2.89024   2
  16  -2  -6 8.21442 5.61858   1
  16  -2  -6 16.9852 4.45746   3
 -16  -2   6 19.5240 10.1571   1
  16   2  -6 21.7535 8.25415   1
  16   2  -6 24.0701 5.64391   3
 -16   2   6 19.2362 6.04909   1
 -15  -2   6 59.7011 5.27008   2
  15  -2  -6 57.9888 6.89113   3
  15  -2  -6 49.8187 8.75680   1
 -15  -2   6 47.0600 11.1751   1
  15   2  -6 79.3441 7.65809   3
  15   2  -6 43.7285 9.52245   1
 -15   2   6 68.6047 9.30484   1
  14  -2  -6 9.56002 3.80588   3
 -14  -2   6 11.6996 9.23471   1
  14  -2  -6 21.8189 6.16543   1
 -14  -2   6 13.3798 2.85125   2
  14   2  -6 18.4058 5.30727   3
 -14   2   6 8.77459 4.96807   1
  14   2  -6 15.1415 2.64408   2
  14   2  -6 6.07288 7.15417   1
 -13  -2   6 2.26049 2.51353   2
  13  -2  -6 -0.1585 3.50767   3
 -13  -2   6 6.17302 8.35154   1
  13  -2  -6 5.16356 4.71700   1
  13   2  -6 -3.8554 4.27036   3
  13   2  -6 4.26415 2.29539   2
 -13   2   6 -3.8381 4.07621   1
  13   2  -6 4.42930 6.70827   1
 -12  -2   6 65.7022 5.09763   2
 -12  -2   6 49.2118 10.7473   1
  12  -2  -6 45.4602 7.24069   1
  12   2  -6 43.2976 9.74598   1
 -12   2   6 51.8848 6.69412   1
  12   2  -6 41.2624 4.44870   2
  12   2  -6 59.1090 6.26487   3
 -11  -2   6 192.190 16.9550   1
 -11  -2   6 216.550 9.43057   2
  11  -2  -6 203.317 7.75220   2
  11  -2  -6 207.073 10.3199   3
  11  -2  -6 197.082 13.1962   1
  11  -2  -6 201.581 7.73408   2
  11   2  -6 195.629 15.9121   1
  11   2  -6 185.363 9.80264   2
  11   2  -6 221.154 11.2331   3
 -11   2   6 206.576 11.7727   1
  10  -2  -6 37.1745 2.83360   2
 -10  -2   6 48.6842 4.91547   2
 -10  -2   6 38.9244 9.19118   1
  10  -2  -6 44.7167 7.91475   1
 -10  -2   6 50.8712 6.16289   3
  10  -2  -6 46.5083 2.90523   2
  10   2  -6 38.4496 8.53257   1
  10   2  -6 21.7612 4.99426   2
 -10   2   6 38.1288 5.25761   1
  10   2  -6 43.5829 7.57561   3
  -9  -2   6 136.951 13.5069   1
   9  -2  -6 146.409 6.02545   2
   9  -2  -6 132.316 7.96934   3
   9  -2  -6 132.060 13.9162   1
   9  -2  -6 150.090 6.07080   2
  -9  -2   6 144.701 7.20305   2
   9   2  -6 160.827 13.2835   1
   9   2  -6 117.562 10.1863   2
  -9   2   6 137.930 8.38120   1
  -8  -2   6 102.613 6.58333   3
   8  -2  -6 122.683 8.89607   1
  -8  -2   6 103.148 11.7804   1
   8  -2  -6 109.113 4.96539   2
   8  -2  -6 103.736 6.75072   3
  -8  -2   6 100.158 5.96045   2
   8   2  -6 95.8371 7.03743   3
   8   2  -6 97.7079 6.70423   2
  -8   2   6 111.336 6.50853   1
   8   2  -6 111.902 10.9580   1
  -7  -2   6 119.113 6.77624   3
   7  -2  -6 119.569 8.46289   1
  -7  -2   6 115.489 6.30715   2
   7  -2  -6 121.388 6.94993   3
   7  -2  -6 121.924 5.43431   2
  -7  -2   6 112.171 11.7488   1
   7   2  -6 114.821 11.0753   1
  -7   2   6 111.926 5.90639   1
   7   2  -6 118.269 7.12202   3
   7   2  -6 114.771 6.55078   2
  -6  -2   6 49.4591 4.65525   3
   6  -2  -6 40.5531 5.04004   3
  -6  -2   6 45.4994 4.28088   2
   6  -2  -6 49.7129 3.49555   2
  -6  -2   6 48.1301 8.29106   1
   6  -2  -6 52.3244 5.89037   1
   6   2  -6 42.3810 4.42809   2
   6   2  -6 56.8108 8.27566   1
   6   2  -6 48.7505 5.01719   3
   5  -2  -6 251.099 12.4288   1
  -5  -2   6 258.279 10.7506   2
  -5  -2   6 285.294 16.6472   1
   5  -2  -6 252.048 10.2359   2
  -5  -2   6 252.104 10.8152   3
   5   2  -6 254.875 10.9416   2
   5   2  -6 244.284 15.7194   1
   5   2  -6 258.649 11.0140   3
   4  -2  -6 1540.82 55.6297   1
  -4  -2   6 1556.42 59.7975   1
  -4  -2   6 1427.70 53.8815   2
   4  -2  -6 1472.97 53.6085   2
  -4  -2   6 1483.55 53.8771   3
   4   2  -6 1443.14 53.9898   2
   4   2  -6 1502.93 59.4375   1
   4   2  -6 1439.42 53.8850   3
   3  -2  -6 2.92789 2.11611   2
  -3  -2   6 -2.0555 2.12935   3
  -3  -2   6 -0.5432 5.20559   1
  -3  -2   6 -1.5832 2.22496   2
   3  -2  -6 1.80304 2.96976   1
   3   2  -6 3.98461 2.38001   2
   3   2  -6 -5.4741 4.99274   1
   3   2  -6 0.16669 2.34690   3
   2  -2  -6 751.242 33.7611   1
  -2  -2   6 796.661 29.3063   3
  -2  -2   6 793.261 34.6627   1
   2  -2  -6 779.845 28.9763   2
  -2  -2   6 783.325 29.1661   2
   2   2  -6 748.664 28.8461   3
   2   2  -6 811.685 34.4827   1
   2   2  -6 799.770 29.3051   2
   1  -2  -6 255.027 10.8393   2
  -1  -2   6 277.261 10.4535   3
  -1  -2   6 268.057 15.9142   1
   1  -2  -6 246.264 12.6797   1
  -1  -2   6 270.016 10.9544   2
   1   2  -6 267.217 15.5804   1
   1   2  -6 250.560 11.0666   2
   1   2  -6 257.374 10.4134   3
   0  -2  -6 0.64790 2.96242   1
   0  -2   6 -2.1106 1.44114   3
   0  -2   6 -3.0036 1.81370   2
   0  -2  -6 -1.7971 2.54529   3
   0  -2  -6 1.23153 2.99387   1
   0  -2   6 -3.6248 4.50089   1
   0   2  -6 4.51899 4.40283   1
   0   2  -6 0.18215 1.62311   3
   0   2  -6 0.21744 1.99919   2
   1  -2   6 167.603 11.7775   1
  -1  -2  -6 156.112 7.62829   3
  -1  -2  -6 159.174 9.50156   1
   1  -2   6 147.373 7.08110   2
  -1  -2  -6 136.970 7.09853   2
  -1   2  -6 137.762 10.8830   1
  -1   2  -6 152.783 6.20728   3
  -1   2  -6 141.607 7.23292   2
  -2  -2  -6 1364.00 52.2284   1
  -2  -2  -6 1351.85 49.7554   2
   2  -2   6 1419.46 54.5552   1
   2  -2   6 1312.95 49.3267   2
  -2  -2  -6 1350.96 49.7496   3
  -2   2  -6 1335.74 49.5467   2
  -2   2  -6 1307.93 48.5434   3
  -2   2  -6 1398.07 54.4175   1
  -3  -2  -6 544.547 21.2035   3
   3  -2   6 579.093 26.2402   1
  -3  -2  -6 526.726 21.0836   2
  -3  -2  -6 531.079 23.9396   1
   3  -2   6 526.920 20.6892   2
  -3   2  -6 572.232 25.9825   1
  -3   2  -6 536.839 21.6502   2
  -4  -2  -6 698.641 25.8279   2
  -4  -2  -6 673.448 26.1492   3
   4  -2   6 673.835 30.6351   1
   4  -2   6 663.354 25.5881   2
  -4  -2  -6 675.642 29.4422   1
  -4   2  -6 691.182 30.8411   1
  -4   2  -6 705.571 31.0206   1
  -5  -2  -6 659.407 25.4140   3
  -5  -2  -6 656.653 24.9737   2
   5  -2   6 660.596 24.7970   2
  -5  -2  -6 677.370 29.3284   1
  -5   2  -6 647.515 30.1831   1
  -5   2  -6 651.466 29.8654   1
  -5   2  -6 658.758 25.4947   2
   6  -2   6 46.3769 4.16242   2
  -6  -2  -6 40.4426 6.98587   1
  -6  -2  -6 32.0014 5.17942   3
  -6  -2  -6 40.6933 4.75601   2
  -6   2  -6 32.7702 6.94837   1
  -6   2  -6 44.0860 4.44431   2
  -6   2  -6 42.1711 7.16710   1
   7  -2   6 -0.1159 2.05449   2
  -7  -2  -6 2.91031 4.71968   1
  -7  -2  -6 0.17016 2.95818   3
  -7  -2  -6 8.34625 3.00710   2
  -7   2  -6 -1.5636 4.49371   1
  -7   2  -6 1.70087 5.04200   1
  -7   2  -6 5.85109 2.59033   2
  -8  -2  -6 7.99583 5.90201   1
   8  -2   6 -0.1696 2.35455   2
  -8  -2  -6 5.19015 3.12946   3
  -8  -2  -6 2.18290 2.74564   2
   8   2   6 8.63026 5.24799   1
  -8   2  -6 2.24511 5.75228   1
  -8   2  -6 4.43453 2.66161   2
  -8   2  -6 6.81425 5.90526   1
  -9  -2  -6 284.544 18.5390   1
   9  -2   6 270.904 11.7227   2
  -9  -2  -6 286.176 12.3429   2
   9   2   6 296.302 13.1380   3
  -9   2  -6 292.016 18.7125   1
  -9   2  -6 284.180 11.9660   2
  -9   2  -6 250.516 17.1103   1
   9   2   6 284.004 17.4758   1
 -10  -2  -6 -2.8141 5.38888   1
 -10  -2  -6 -0.0374 2.90050   2
  10  -2   6 -2.8690 2.10599   2
 -10   2  -6 -3.1189 4.90099   1
  10   2   6 -4.0664 7.26276   1
  10   2   6 1.31430 3.57496   3
 -10   2  -6 2.34273 6.52086   1
 -10   2  -6 0.30216 2.65051   2
 -11  -2  -6 -3.0318 2.90808   2
  11  -2   6 -1.2882 2.19400   2
 -11  -2  -6 9.42616 10.2838   1
  11   2   6 -2.6822 4.70027   1
 -11   2  -6 11.7328 7.69996   1
 -11   2  -6 1.88047 2.48986   2
 -11   2  -6 -1.0436 5.71412   1
  11   2   6 -3.2718 3.37199   3
  12  -2   6 310.938 12.9513   2
 -12  -2  -6 318.948 13.6983   2
 -12  -2  -6 326.817 22.2961   1
 -12   2  -6 277.672 19.2242   1
 -12   2  -6 316.255 21.1996   1
 -12   2  -6 316.370 13.1900   2
  12   2   6 308.474 20.2181   1
  12   2   6 333.293 14.7662   3
  13  -2   6 53.8293 4.75723   2
 -13  -2  -6 60.3699 6.17277   2
 -13  -2  -6 78.7107 11.7753   1
  13   2   6 74.0675 10.6126   1
 -13   2  -6 54.0684 9.49513   1
 -13   2  -6 58.6343 2.94247   3
 -13   2  -6 58.6312 5.25101   2
 -13   2  -6 56.2050 9.82860   1
  13   2   6 63.6423 7.13997   3
  14  -2   6 17.7660 2.84070   2
 -14  -2  -6 15.5920 3.61798   2
 -14  -2  -6 12.3950 8.22438   1
 -14   2  -6 20.8854 1.77809   3
 -14   2  -6 19.8892 7.79084   1
 -14   2  -6 19.5793 3.22786   2
  14   2   6 24.3559 5.12838   3
  14   2   6 22.1815 7.91706   1
 -14   2  -6 13.6441 6.74937   1
 -15  -2  -6 -2.7383 3.18077   2
  15  -2   6 -0.7154 2.15722   2
 -15  -2  -6 -7.0165 6.59352   1
  15   2   6 2.64042 4.41972   3
 -15   2  -6 -3.0224 6.30296   1
 -15   2  -6 -2.2181 6.41237   1
  15   2   6 2.99221 6.30999   1
 -15   2  -6 0.99141 2.51133   2
 -15   2  -6 1.57549 1.36932   3
  16  -2   6 98.7235 5.64598   2
 -16  -2  -6 101.345 7.31924   2
 -16  -2  -6 81.3284 13.3845   1
 -16   2  -6 104.073 13.6964   1
  16   2   6 104.586 13.7991   1
  16   2   6 93.5833 8.46701   3
 -16   2  -6 85.2930 4.46667   3
 -16   2  -6 99.1561 6.27222   2
 -16   2  -6 74.6077 11.3584   1
 -17  -2  -6 2.47399 8.54821   1
 -17  -2  -6 -2.0983 3.38154   2
  17  -2   6 -1.1460 2.03330   2
  17   2   6 3.91675 4.65910   3
 -17   2  -6 0.73988 8.07035   1
 -17   2  -6 5.42980 2.69939   2
  17   2   6 2.23111 6.15549   1
 -18  -2  -6 34.4502 12.7955   1
 -18  -2  -6 61.0619 6.67063   2
  18  -2   6 49.3796 4.28269   2
 -18   2  -6 28.7100 9.55014   1
 -18   2  -6 59.7931 5.22605   2
  18   2   6 69.0689 8.21061   3
 -18   2  -6 70.9649 13.1256   1
 -19  -2  -6 23.8581 12.6470   1
 -19  -2  -6 36.9336 5.73745   2
 -19   2  -6 28.5658 11.0372   1
  19   2   6 37.8559 6.15226   3
  19   2   6 44.7918 11.1338   1
 -19   2  -6 36.9512 3.83367   2
 -20  -2  -6 9.23567 3.91559   2
 -20   2  -6 16.1354 2.96867   2
 -20   2  -6 28.8816 12.3262   1
  20   2   6 16.1600 5.05994   3
 -21  -2  -6 2.17055 13.6339   1
 -21  -2  -6 10.0144 3.89966   2
 -21   2  -6 11.9922 2.94136   2
  21   2   6 13.5458 5.85942   3
 -22  -2  -6 9.92907 3.98859   2
  22  -3  -6 -1.3779 4.21652   3
 -22  -3   6 18.6490 18.7830   1
 -22  -3   6 1.54825 3.43010   2
  22   3  -6 0.68860 5.97991   3
 -21  -3   6 10.0464 13.7446   1
  21  -3  -6 0.41110 6.69772   1
  21  -3  -6 2.16369 4.59408   3
  21   3  -6 -5.5708 10.0422   1
 -21   3   6 -7.6396 6.71948   1
  21   3  -6 0.83887 5.78404   3
 -20  -3   6 20.6580 12.3131   1
  20  -3  -6 -10.422 6.04408   1
  20  -3  -6 3.45665 4.37441   3
  20   3  -6 6.07670 10.6897   1
  20   3  -6 1.15237 5.52309   3
 -20   3   6 8.40252 5.60601   1
  19  -3  -6 3.42920 4.58468   3
 -19  -3   6 26.8053 12.3810   1
  19  -3  -6 14.9135 6.95747   1
  19   3  -6 -1.2809 5.20400   3
  19   3  -6 4.21476 7.76239   1
 -19   3   6 -4.1947 4.50889   1
  18  -3  -6 2.71083 5.69253   1
  18  -3  -6 4.38511 3.99300   3
 -18  -3   6 7.39844 10.7540   1
 -18   3   6 3.72823 3.62546   1
 -18   3   6 -0.7058 3.96134   1
  18   3  -6 3.79513 7.27022   1
  18   3  -6 9.32595 5.50899   3
 -17  -3   6 9.53624 10.0426   1
  17  -3  -6 2.00116 5.44308   1
  17  -3  -6 16.6584 4.42341   3
 -17  -3   6 9.35698 3.22140   2
  17   3  -6 17.5090 6.06016   3
 -17   3   6 12.1862 3.77222   1
  17   3  -6 13.2865 8.28781   1
 -17   3   6 4.41922 3.71356   1
  16  -3  -6 2.43468 4.20369   3
  16  -3  -6 -3.9029 4.56803   1
 -16  -3   6 1.52224 3.13498   2
 -16  -3   6 4.56225 9.97904   1
  16   3  -6 7.77939 4.88536   3
 -16   3   6 5.20456 2.58908   1
  16   3  -6 5.54825 6.94001   1
 -16   3   6 1.43900 2.82944   1
 -15  -3   6 19.9052 10.2670   1
  15  -3  -6 19.8127 5.83341   1
  15  -3  -6 19.3352 4.57086   3
 -15  -3   6 15.1970 3.40605   2
  15   3  -6 17.4017 8.63134   1
  15   3  -6 15.9373 4.90348   3
  14  -3  -6 11.8327 5.58767   1
 -14  -3   6 16.2667 3.73384   2
  14  -3  -6 10.7474 4.21269   3
  14   3  -6 10.7896 6.98022   1
  14   3  -6 18.1364 5.16852   3
  13  -3  -6 9.39774 1.16711   2
 -13  -3   6 16.1832 10.1289   1
 -13  -3   6 8.12373 4.99239   2
  13  -3  -6 7.22230 1.18112   2
  13  -3  -6 9.65519 4.78592   1
  13  -3  -6 5.89917 3.92084   3
  13   3  -6 1.41102 7.21832   1
  13   3  -6 10.3830 3.24232   2
  13   3  -6 8.27467 4.41576   3
  12  -3  -6 139.985 8.46459   3
  12  -3  -6 145.151 10.7908   1
  12  -3  -6 133.418 5.82852   2
 -12  -3   6 135.010 15.5584   1
  12  -3  -6 130.812 5.81406   2
 -12  -3   6 142.231 8.11233   2
  12   3  -6 150.486 9.56697   3
  12   3  -6 131.989 7.82707   2
  12   3  -6 140.974 15.1145   1
  11  -3  -6 0.90345 3.79791   1
  11  -3  -6 2.85758 3.65280   3
  11  -3  -6 -0.7035 1.62989   2
 -11  -3   6 4.61326 7.37071   1
 -11  -3   6 1.63692 3.03838   2
  11  -3  -6 1.16009 1.44447   2
  11   3  -6 2.13377 6.86163   1
  11   3  -6 -1.8517 2.49578   2
  11   3  -6 2.89033 4.07411   3
 -10  -3   6 34.3937 4.05018   2
  10  -3  -6 32.5479 2.78566   2
 -10  -3   6 27.6823 8.83366   1
  10  -3  -6 37.0482 3.32820   2
  10  -3  -6 37.2956 5.48248   1
  10   3  -6 18.5050 7.34961   1
  10   3  -6 38.8892 5.06142   3
  10   3  -6 34.4881 4.23242   2
   9  -3  -6 10.0460 4.11705   3
  -9  -3   6 8.39737 2.97990   2
   9  -3  -6 11.8135 2.20669   2
   9  -3  -6 9.84519 2.10473   2
  -9  -3   6 7.04058 7.76735   1
   9  -3  -6 7.72251 3.63425   1
   9   3  -6 5.34333 2.89071   2
   9   3  -6 12.7419 6.63947   1
   9   3  -6 -0.9911 3.61923   3
  -8  -3   6 516.905 20.3130   2
   8  -3  -6 527.943 20.2337   2
  -8  -3   6 510.695 20.5616   3
   8  -3  -6 486.287 21.2411   1
   8  -3  -6 515.526 20.5958   3
  -8  -3   6 531.713 28.1270   1
   8  -3  -6 521.545 19.3683   2
   8   3  -6 491.045 27.0619   1
   8   3  -6 497.348 20.2809   2
   8   3  -6 498.554 20.8388   3
   7  -3  -6 4.10145 2.66098   2
  -7  -3   6 10.5209 7.91322   1
   7  -3  -6 6.45061 2.20715   2
   7  -3  -6 6.66701 3.10817   1
   7  -3  -6 6.34820 4.09001   3
  -7  -3   6 4.74530 3.38298   2
   7   3  -6 8.69978 6.10052   1
   7   3  -6 10.3730 3.07915   2
  -6  -3   6 326.565 13.9534   2
  -6  -3   6 314.922 13.9324   3
   6  -3  -6 326.359 13.9131   1
   6  -3  -6 310.324 13.7431   2
  -6  -3   6 307.735 21.0188   1
   6  -3  -6 336.202 13.1936   2
   6   3  -6 330.168 14.0117   3
   6   3  -6 338.902 20.3180   1
   6   3  -6 346.363 14.1536   2
   5  -3  -6 42.2712 4.30537   1
   5  -3  -6 34.6529 3.28438   2
  -5  -3   6 45.5223 5.09935   3
   5  -3  -6 38.2437 3.53212   2
  -5  -3   6 31.3617 8.22344   1
  -5  -3   6 30.7663 3.78508   2
   5   3  -6 47.7062 5.35589   3
   5   3  -6 51.6861 5.57948   2
   5   3  -6 42.1549 8.37850   1
  -4  -3   6 505.305 20.0051   2
  -4  -3   6 521.203 27.0053   1
   4  -3  -6 486.678 19.4996   2
   4  -3  -6 497.852 19.7660   1
  -4  -3   6 492.963 19.6085   3
   4   3  -6 549.023 19.8004   3
   4   3  -6 464.802 25.1231   1
   4   3  -6 505.614 20.1518   2
   3  -3  -6 372.739 15.3590   1
   3  -3  -6 381.772 15.0859   2
  -3  -3   6 376.365 14.8911   3
  -3  -3   6 376.525 15.4460   2
   3  -3  -6 364.343 14.9859   2
  -3  -3   6 390.894 21.9190   1
   3  -3  -6 365.693 15.2024   1
   3   3  -6 394.903 15.6238   2
   3   3  -6 375.136 20.4728   1
   3   3  -6 352.057 14.8714   3
   2  -3  -6 191.021 8.59141   2
   2  -3  -6 174.694 8.86894   1
  -2  -3   6 171.638 13.7770   1
   2  -3  -6 183.586 8.54996   2
   2  -3  -6 139.638 10.8245   3
   2  -3  -6 176.514 9.03979   1
  -2  -3   6 183.440 8.79467   2
  -2  -3   6 176.418 7.97350   3
   2   3  -6 201.323 9.16872   2
   2   3  -6 176.275 13.6309   1
   2   3  -6 172.261 7.97855   3
   1  -3  -6 64.0967 5.25011   2
  -1  -3   6 68.2990 4.68574   3
   1  -3  -6 68.4003 5.86170   1
  -1  -3   6 69.5637 9.70582   1
   1  -3  -6 64.5459 5.78879   1
  -1  -3   6 64.0553 5.39467   2
   1   3  -6 72.3212 9.88082   1
   1   3  -6 67.8558 5.70932   2
   1   3  -6 65.0521 4.24606   3
   0  -3   6 78.8756 10.0997   1
   0  -3   6 76.7991 4.19566   3
   0  -3  -6 70.1168 6.35364   1
   0  -3   6 82.8939 5.73498   2
   0  -3  -6 76.5877 6.27412   3
   0  -3  -6 71.5831 5.47882   2
   0   3  -6 71.6587 4.15559   3
   0   3  -6 79.1394 9.05026   1
   0   3  -6 72.2474 5.79149   2
  -1  -3  -6 194.182 9.67147   3
   1  -3   6 212.253 15.2255   1
  -1  -3  -6 204.959 9.25164   2
   1  -3   6 185.415 9.14907   2
   1  -3   6 188.884 7.69708   3
  -1  -3  -6 197.023 11.1603   1
  -1   3  -6 182.910 7.71620   3
  -1   3  -6 186.732 9.37137   2
  -1   3  -6 196.447 14.0062   1
  -2  -3  -6 528.329 21.8975   3
  -2  -3  -6 545.329 23.9586   1
  -2  -3  -6 563.297 21.5213   2
   2  -3   6 549.353 21.4328   2
   2  -3   6 554.864 27.3848   1
  -2   3  -6 542.341 26.6498   1
  -2   3  -6 555.176 21.6283   2
  -2   3  -6 560.619 20.1416   3
  -3  -3  -6 353.694 16.0620   3
  -3  -3  -6 405.289 15.8358   2
  -3  -3  -6 384.628 18.8084   1
   3  -3   6 378.494 15.5942   2
   3  -3   6 394.071 21.6742   1
  -3   3  -6 369.282 20.5889   1
  -3   3  -6 385.052 15.8078   2
   4  -3   6 56.4115 5.21809   2
  -4  -3  -6 51.4522 7.36581   1
  -4  -3  -6 62.7062 5.59486   2
   4  -3   6 60.1826 9.04782   1
  -4  -3  -6 35.7337 6.16032   3
  -4   3  -6 62.9483 5.74632   2
  -4   3  -6 37.0641 6.54574   1
  -4   3  -6 70.0745 9.06455   1
   5  -3   6 210.655 9.95616   2
  -5  -3  -6 224.859 10.4294   2
   5  -3   6 221.060 15.4231   1
  -5   3  -6 221.214 15.1045   1
  -5   3  -6 199.628 13.5363   1
  -5   3  -6 229.450 10.3767   2
  -6  -3  -6 72.4203 6.20918   2
   6  -3   6 70.5952 5.51467   2
  -6  -3  -6 73.0039 9.20761   1
  -6   3  -6 73.4093 6.01260   2
  -6   3  -6 72.2767 14.0147   1
  -6   3  -6 78.5295 8.93760   1
   7  -3   6 28.2523 3.24608   2
  -7  -3  -6 25.4908 7.08659   1
  -7  -3  -6 29.0505 3.82114   2
  -7   3  -6 43.3579 7.33507   1
  -7   3  -6 32.9793 3.68827   2
  -7   3  -6 35.7953 7.73913   1
   8  -3   6 24.4001 3.54673   2
  -8  -3  -6 10.5843 3.57109   2
  -8  -3  -6 16.9713 6.65418   1
  -8   3  -6 16.4386 6.95134   1
  -8   3  -6 25.7774 6.31930   1
  -8   3  -6 19.3859 3.17825   2
  -9  -3  -6 557.188 21.6280   2
   9  -3   6 524.109 20.9128   2
  -9  -3  -6 529.572 28.0471   1
  -9   3  -6 550.051 21.2909   2
  -9   3  -6 536.239 27.2020   1
  -9   3  -6 502.788 26.7198   1
  10  -3   6 25.0262 3.48155   2
 -10  -3  -6 8.80616 7.72360   1
 -10  -3  -6 19.0317 4.06257   2
  10   3   6 24.7734 6.60019   1
 -10   3  -6 13.6096 3.28670   2
 -10   3  -6 31.0175 7.51363   1
 -10   3  -6 18.5895 7.26549   1
 -11  -3  -6 16.4937 7.71014   1
 -11  -3  -6 -2.4949 3.40918   2
  11  -3   6 0.43567 2.50271   2
  11   3   6 4.36353 5.70835   1
 -11   3  -6 -0.9039 2.95795   2
 -11   3  -6 7.59019 5.82030   1
 -11   3  -6 -4.1863 5.36871   1
  11   3   6 3.98106 4.13096   3
  12  -3   6 138.409 7.34983   2
 -12  -3  -6 127.005 8.74904   2
 -12  -3  -6 132.531 14.3163   1
  12   3   6 146.705 9.82327   3
  12   3   6 145.991 13.3602   1
 -12   3  -6 120.248 13.2369   1
 -12   3  -6 159.702 14.2195   1
 -12   3  -6 138.358 7.98519   2
 -13  -3  -6 9.80925 8.49700   1
  13  -3   6 4.32830 2.70573   2
 -13  -3  -6 -5.0847 3.61040   2
 -13   3  -6 5.22817 6.52123   1
  13   3   6 -3.3848 4.22166   3
 -13   3  -6 1.60061 3.00657   2
 -13   3  -6 13.8090 6.60226   1
  13   3   6 0.93050 5.82969   1
 -14  -3  -6 41.9915 10.6415   1
 -14  -3  -6 63.0291 7.13728   2
 -14   3  -6 40.8077 8.80767   1
  14   3   6 58.8650 10.1391   1
 -14   3  -6 56.3694 5.74670   2
 -14   3  -6 50.8367 9.91251   1
  14   3   6 67.4726 7.60355   3
 -15  -3  -6 13.3342 4.46398   2
 -15  -3  -6 5.66264 9.33143   1
  15  -3   6 14.4200 3.28128   2
  15   3   6 3.45497 10.0724   1
  15   3   6 16.9357 5.31733   3
 -15   3  -6 6.03432 7.42889   1
 -15   3  -6 16.7347 3.42579   2
 -15   3  -6 27.1935 8.59639   1
 -16  -3  -6 15.0220 4.82821   2
  16  -3   6 20.3776 3.14605   2
  16   3   6 18.0666 5.31901   3
  16   3   6 3.85859 6.49451   1
 -16   3  -6 17.7248 3.44112   2
 -16   3  -6 19.8609 9.32056   1
 -16   3  -6 14.4618 7.34882   1
 -17  -3  -6 17.3289 9.88416   1
  17  -3   6 6.05401 2.36184   2
 -17  -3  -6 4.27846 3.84627   2
  17   3   6 24.0841 11.0083   3
 -17   3  -6 0.49203 8.94717   1
 -17   3  -6 6.53505 3.05049   2
 -18  -3  -6 -24.323 18.1383   1
 -18  -3  -6 5.46925 4.36873   2
 -18   3  -6 5.65847 10.2520   1
 -18   3  -6 2.85758 2.83428   2
  18   3   6 -2.1318 4.75166   3
 -19  -3  -6 6.42764 4.06593   2
 -19   3  -6 9.63404 13.0328   1
 -19   3  -6 6.68779 2.99013   2
  19   3   6 11.4572 6.19367   3
 -20  -3  -6 4.49237 4.20563   2
  20   3   6 17.1967 6.17584   3
 -20   3  -6 6.41794 2.71628   2
  20  -4  -6 25.1158 4.90966   3
  20   4  -6 35.6994 7.40003   3
  19  -4  -6 0.75154 4.19877   3
  19  -4  -6 -2.6441 7.03661   1
 -19  -4   6 24.0192 15.8246   1
  19   4  -6 7.26824 6.38742   3
 -18  -4   6 5.58900 11.9070   1
  18  -4  -6 -2.0578 3.71670   3
  18  -4  -6 5.50394 9.59189   1
  18   4  -6 2.08036 5.47833   3
  17  -4  -6 -0.3754 3.80893   3
 -17  -4   6 -16.222 18.3718   1
  17   4  -6 -0.1677 5.74957   3
  17   4  -6 2.81270 7.85187   1
  16  -4  -6 -1.9321 3.60442   3
 -16  -4   6 -25.604 10.1574   1
  16   4  -6 -4.1833 5.31031   3
  16   4  -6 4.37265 7.43979   1
  15  -4  -6 14.1885 4.15743   3
 -15  -4   6 7.14742 10.4960   1
  15   4  -6 14.9594 5.55902   3
 -14  -4   6 11.7140 9.30495   1
  14  -4  -6 9.68473 1.67086   2
  14  -4  -6 10.6377 1.58917   2
  14  -4  -6 13.6651 4.04444   3
  14   4  -6 9.01704 5.25181   3
  14   4  -6 8.19840 7.50459   1
  13  -4  -6 39.3005 3.25314   2
  13  -4  -6 39.2005 3.40732   2
 -13  -4   6 41.6273 11.3120   1
  13  -4  -6 33.8980 4.94944   3
  13   4  -6 39.9527 5.68951   3
  13   4  -6 37.7666 9.01779   1
  12  -4  -6 18.1812 4.12827   3
 -12  -4   6 15.1280 10.3212   1
  12  -4  -6 9.99253 2.09964   2
  12   4  -6 12.7016 7.34972   1
  12   4  -6 9.82061 3.62573   2
  12   4  -6 6.86623 4.31453   3
  11  -4  -6 5.37583 2.03148   2
  11  -4  -6 5.18123 3.74375   3
 -11  -4   6 -2.4918 8.60584   1
  11   4  -6 9.53537 3.69235   2
  11   4  -6 3.53599 6.24457   1
  11   4  -6 8.05075 4.09193   3
  10  -4  -6 -0.1091 2.20674   2
  10  -4  -6 -0.7074 3.22392   3
 -10  -4   6 -0.6292 7.84016   1
  10  -4  -6 1.78599 1.95033   2
  10   4  -6 1.75244 6.16062   1
  10   4  -6 -2.9122 3.41873   3
  10   4  -6 1.72862 3.57978   2
   9  -4  -6 19.3098 3.75989   3
   9  -4  -6 8.80497 2.63247   2
  -9  -4   6 5.74853 7.10190   1
   9  -4  -6 11.7341 2.42672   2
   9   4  -6 11.3095 3.40958   2
   9   4  -6 4.84475 3.49885   3
   9   4  -6 8.12444 6.39758   1
   8  -4  -6 -1.1974 3.45114   3
   8  -4  -6 1.97636 2.45083   2
  -8  -4   6 -5.6840 7.34510   1
   8  -4  -6 2.56943 2.17049   2
   8   4  -6 -0.4401 3.50586   3
   8   4  -6 -1.1303 2.97172   2
   8   4  -6 5.32989 6.23759   1
   7  -4  -6 21.7856 3.27534   2
   7  -4  -6 20.2266 3.19651   2
   7  -4  -6 28.5397 4.68728   3
  -7  -4   6 39.3974 9.80646   1
   7   4  -6 26.1753 4.56017   2
   7   4  -6 26.1871 8.03234   1
   7   4  -6 13.3266 4.02027   3
  -6  -4   6 251.295 12.1202   3
   6  -4  -6 257.518 11.5725   2
   6  -4  -6 278.939 11.7781   2
  -6  -4   6 267.028 20.1722   1
   6   4  -6 247.577 12.4384   2
   6   4  -6 285.795 18.6044   1
   5  -4  -6 57.6738 5.32393   2
   5  -4  -6 54.8836 5.62364   2
  -5  -4   6 52.1809 10.7699   1
   5   4  -6 47.0782 5.19203   2
   5   4  -6 50.8158 9.35746   1
   4  -4  -6 280.438 11.9137   2
  -4  -4   6 267.996 18.7309   1
  -4  -4   6 214.362 12.8985   2
  -4  -4   6 262.572 11.7689   3
   4  -4  -6 293.216 12.1283   2
   4   4  -6 257.577 12.6453   2
   4   4  -6 293.079 18.2943   1
   4   4  -6 268.600 11.8190   3
  -3  -4   6 1.07942 6.84939   1
   3  -4  -6 2.08823 2.64758   2
   3  -4  -6 -3.6045 3.07365   2
  -3  -4   6 -0.8699 2.64616   3
  -3  -4   6 -4.3574 2.72260   2
   3   4  -6 2.51206 5.26138   1
   3   4  -6 1.58738 3.19787   2
   3   4  -6 -0.8242 2.58108   3
  -2  -4   6 133.420 6.71423   3
  -2  -4   6 125.521 14.0148   1
  -2  -4   6 113.225 7.67917   2
   2  -4  -6 136.775 7.87803   2
   2  -4  -6 118.424 7.46741   2
   2   4  -6 126.214 6.71638   3
   2   4  -6 129.213 12.2136   1
   2   4  -6 129.334 8.16375   2
   1  -4  -6 10.8345 2.86169   1
  -1  -4   6 3.72418 6.90040   1
  -1  -4   6 8.72692 2.43641   3
   1  -4  -6 5.31448 2.72105   1
  -1  -4   6 6.22095 3.08655   2
   1  -4  -6 6.26565 3.24219   2
   1   4  -6 11.0379 6.48448   1
   1   4  -6 3.98969 3.27449   2
   1   4  -6 7.12518 2.47395   3
   0  -4   6 65.0503 9.98055   1
   0  -4  -6 83.8900 6.74444   2
   0  -4  -6 76.3192 6.65768   1
   0  -4  -6 80.6146 6.48883   2
   0  -4   6 83.5104 6.34788   3
   0  -4   6 68.7955 6.45508   2
   0   4  -6 68.3933 6.79744   2
   0   4  -6 78.4817 4.60443   3
   0   4  -6 61.4507 9.24841   1
   1  -4   6 216.810 11.2688   2
   1  -4   6 221.864 17.3348   1
  -1  -4  -6 241.070 11.4137   2
  -1  -4  -6 255.750 11.7213   2
   1  -4   6 231.344 9.43673   3
  -1  -4  -6 242.555 12.7931   1
  -1   4  -6 247.711 11.7722   2
  -1   4  -6 237.670 16.2142   1
  -1   4  -6 247.491 9.57057   3
   2  -4   6 3.37554 6.56839   1
  -2  -4  -6 4.99435 4.18333   1
   2  -4   6 -0.2268 2.91456   2
  -2  -4  -6 4.86076 3.45462   2
  -2  -4  -6 2.28084 3.75329   2
  -2   4  -6 0.70907 3.90199   2
  -2   4  -6 3.70404 5.69770   1
  -3  -4  -6 342.520 19.8519   2
  -3  -4  -6 403.433 16.8858   2
   3  -4   6 378.124 16.5238   2
   3  -4   6 405.407 23.0953   1
  -3  -4  -6 406.561 19.7414   1
  -3   4  -6 427.318 17.0842   2
  -3   4  -6 376.681 21.7254   1
   4  -4   6 57.8384 5.93589   2
  -4  -4  -6 59.1284 6.82308   2
   4  -4   6 66.3015 10.4533   1
  -4  -4  -6 57.4852 8.10397   1
  -4   4  -6 60.1075 6.59792   2
  -4   4  -6 44.9652 7.92134   1
   5  -4   6 42.5642 8.66897   1
  -5  -4  -6 37.0318 6.89935   1
  -5  -4  -6 25.9275 4.19232   2
   5  -4   6 28.3106 3.75445   2
  -5   4  -6 32.6422 7.11461   1
  -5   4  -6 34.5718 8.34167   1
  -5   4  -6 17.7752 3.75937   2
  -6  -4  -6 21.0979 6.82197   1
  -6  -4  -6 21.6848 4.16978   2
   6  -4   6 20.9798 3.46510   2
  -6   4  -6 32.4776 9.54762   1
  -6   4  -6 32.0489 7.35837   1
  -6   4  -6 35.6957 4.66968   2
  -7  -4  -6 110.360 8.30401   2
  -7  -4  -6 111.223 11.7004   1
   7  -4   6 100.161 7.52407   2
  -7   4  -6 116.606 7.82404   2
  -7   4  -6 115.893 11.7508   1
  -8  -4  -6 9.28423 6.98503   1
  -8  -4  -6 7.05090 4.01890   2
  -8   4  -6 4.76575 5.49012   1
  -8   4  -6 9.04379 3.74271   2
  -8   4  -6 5.77059 7.88960   1
  -9  -4  -6 2.62783 6.64179   1
  -9  -4  -6 6.16968 3.86364   2
  -9   4  -6 -3.4994 4.95133   1
  -9   4  -6 -7.4233 5.36869   1
  -9   4  -6 1.62190 3.50293   2
 -10  -4  -6 18.8206 4.61965   2
 -10  -4  -6 21.7963 7.86601   1
 -10   4  -6 14.9113 6.39763   1
 -10   4  -6 13.3647 6.72239   1
 -10   4  -6 10.8291 3.71108   2
 -11  -4  -6 35.9525 5.52107   2
 -11   4  -6 38.1146 8.68521   1
 -11   4  -6 30.3077 4.17564   2
 -12  -4  -6 16.7799 9.82517   1
 -12  -4  -6 23.5285 4.99048   2
 -12   4  -6 31.5220 4.44436   2
 -12   4  -6 23.6742 8.11582   1
 -12   4  -6 26.6130 7.60232   1
 -13  -4  -6 1.66562 4.52577   2
 -13  -4  -6 -8.6650 8.28016   1
 -13   4  -6 4.43104 3.21800   2
 -13   4  -6 2.20021 7.97071   1
 -13   4  -6 -2.2636 6.88856   1
 -14  -4  -6 16.8449 5.19021   2
 -14   4  -6 4.35685 8.08812   1
 -14   4  -6 5.77002 3.19779   2
 -15  -4  -6 1.81663 4.47346   2
 -15   4  -6 14.4309 8.86598   1
 -15   4  -6 -0.2172 3.03325   2
 -16  -4  -6 1.21126 4.43766   2
 -16   4  -6 2.02674 3.01568   2
 -16   4  -6 3.47005 9.56987   1
 -17  -4  -6 21.8534 5.55866   2
 -17   4  -6 22.9514 3.79692   2
 -17   4  -6 18.3962 12.5856   1
 -18  -4  -6 12.0771 4.62152   2
 -18   4  -6 22.9475 3.69567   2
  17  -5  -6 6.49382 4.14437   3
  17   5  -6 9.72095 6.32231   3
  16  -5  -6 1.52612 3.86180   3
  16   5  -6 -1.1235 5.68852   3
  15  -5  -6 0.72568 3.71735   3
  15  -5  -6 -1.2679 1.79532   2
  15   5  -6 -1.0569 5.54007   3
  14  -5  -6 0.86914 3.62971   3
  14  -5  -6 -1.7115 2.26487   2
  14   5  -6 4.83178 5.43955   3
  13  -5  -6 0.62977 1.72280   2
  13  -5  -6 0.61166 3.59189   3
  13  -5  -6 -0.8478 2.25680   2
  13   5  -6 -0.6281 5.00199   3
  12  -5  -6 26.5925 3.29637   2
 -12  -5   6 26.9772 10.8777   1
  12  -5  -6 36.4054 5.01558   3
  12  -5  -6 18.0352 2.72580   2
  12   5  -6 41.1890 6.50201   3
 -11  -5   6 3.60107 10.4852   1
  11  -5  -6 15.9363 4.10857   3
  11  -5  -6 14.9571 3.18035   2
  11   5  -6 13.9154 10.0319   1
  11   5  -6 20.9050 5.28508   3
 -10  -5   6 -1.9275 8.02800   1
  10  -5  -6 -0.1099 2.08633   2
  10  -5  -6 0.61879 2.73707   2
  10  -5  -6 -2.8685 3.32903   3
  10   5  -6 -0.3639 6.16522   1
  10   5  -6 0.22812 3.98254   3
  10   5  -6 -3.1230 4.15457   2
   9  -5  -6 -1.3884 2.76390   2
   9  -5  -6 0.75388 3.58623   3
   9  -5  -6 4.94053 2.36635   2
   9   5  -6 -0.9306 3.39415   2
   9   5  -6 4.01126 4.19345   3
   9   5  -6 -9.7919 5.33800   1
   8  -5  -6 7.21979 3.92580   3
   8  -5  -6 8.27193 3.15130   2
  -8  -5   6 -4.0173 10.8678   1
   8  -5  -6 -1.4707 2.23250   2
   8   5  -6 5.93488 6.66978   1
   8   5  -6 -1.5370 3.64798   2
   8   5  -6 6.45391 4.20969   3
   7  -5  -6 27.0421 3.98018   2
  -7  -5   6 29.8181 10.1092   1
   7  -5  -6 26.2059 4.74856   3
   7   5  -6 23.5464 5.18995   2
   7   5  -6 29.1657 4.66227   3
   6  -5  -6 2.74185 3.14129   2
  -6  -5   6 -0.8582 7.24720   1
   6   5  -6 6.96169 4.06120   2
   6   5  -6 -10.939 7.20544   1
   6   5  -6 11.3414 3.89805   3
   5  -5  -6 19.7224 4.20527   2
  -5  -5   6 21.3056 9.04329   1
   5   5  -6 15.9414 5.67545   2
   5   5  -6 17.5725 3.72544   3
   5   5  -6 25.5824 7.15345   1
  -4  -5   6 1.98488 7.21311   1
  -4  -5   6 -5.0729 2.72313   3
   4  -5  -6 3.42376 3.26385   2
   4   5  -6 6.74456 5.85364   1
   4   5  -6 2.88214 3.61191   3
   3  -5  -6 -7.3308 3.26200   2
  -3  -5   6 -0.7943 7.25301   1
   3   5  -6 -1.5613 5.77327   2
   3   5  -6 3.74302 5.16290   1
  -2  -5   6 6.71160 7.45240   1
   2  -5  -6 7.39855 4.10915   2
  -2  -5   6 5.66869 2.61292   3
   2   5  -6 11.9112 4.20090   2
   2   5  -6 -5.6992 4.91793   1
   2   5  -6 14.4953 3.10461   3
  -1  -5   6 -1.5615 2.08472   3
  -1  -5   6 0.47237 6.85511   1
   1  -5  -6 2.37039 4.14975   2
   1   5  -6 -2.9141 2.42502   3
   1   5  -6 7.70311 5.43868   1
   1   5  -6 1.27764 4.01859   2
   0  -5  -6 10.2230 2.87441   1
   0  -5  -6 9.85373 4.55836   2
   0  -5  -6 6.97735 2.70531   1
   0  -5   6 7.17872 7.37245   1
   0  -5   6 9.40880 2.22359   3
   0   5  -6 13.3055 5.84818   1
   0   5  -6 7.54815 4.20356   2
  -1  -5  -6 24.2045 4.39974   1
  -1  -5  -6 22.6935 4.66607   2
   1  -5   6 35.0690 9.20285   1
   1  -5   6 29.3284 3.17735   3
  -1   5  -6 21.7524 4.33780   2
  -1   5  -6 22.7158 6.54647   1
  -1   5  -6 23.6561 6.65210   1
   2  -5   6 18.4341 7.51366   1
  -2  -5  -6 7.87424 4.17486   1
  -2  -5  -6 5.39060 3.95377   2
  -2   5  -6 5.64994 5.34654   1
  -2   5  -6 7.72996 5.50908   1
  -2   5  -6 9.96133 4.46801   2
   3  -5   6 33.5852 9.01047   1
  -3  -5  -6 20.8461 5.29528   1
  -3   5  -6 17.9308 6.22875   1
  -3   5  -6 23.3005 4.20688   2
  -3   5  -6 26.7135 6.56504   1
  -4  -5  -6 17.5935 4.67287   2
  -4   5  -6 17.1236 4.32029   2
  -4   5  -6 6.97545 5.56119   1
  -4   5  -6 23.6474 8.18546   1
  -5  -5  -6 51.6358 8.23292   1
  -5  -5  -6 45.5592 5.94188   2
  -5   5  -6 47.7994 5.82977   2
  -5   5  -6 29.8313 11.7672   1
  -5   5  -6 45.3470 7.64032   1
  -6  -5  -6 38.7213 7.62257   1
  -6  -5  -6 15.5743 4.51155   2
  -6   5  -6 15.2849 6.13103   1
  -6   5  -6 6.53782 6.07416   1
  -6   5  -6 21.3164 4.66612   2
  -7  -5  -6 -5.7404 5.78479   1
  -7  -5  -6 -1.0914 4.38892   2
  -7   5  -6 -2.7084 4.74938   1
  -7   5  -6 -1.7831 3.69889   2
  -7   5  -6 5.22844 5.73412   1
  -8  -5  -6 72.4161 7.01171   2
  -8   5  -6 50.8082 7.89176   2
  -8   5  -6 70.2255 9.37490   1
  -8   5  -6 69.1153 9.02832   1
  -9  -5  -6 61.7342 6.64984   2
  -9   5  -6 80.3226 10.9583   2
  -9   5  -6 62.0061 8.98890   1
 -10  -5  -6 4.34534 4.44814   2
 -10   5  -6 2.25109 5.09135   2
 -10   5  -6 -10.168 8.43629   1
 -11  -5  -6 33.1180 5.52325   2
 -11   5  -6 43.5103 5.21727   2
 -12  -5  -6 16.1836 4.86679   2
 -12   5  -6 13.2402 8.71880   1
 -12   5  -6 14.9641 4.06453   2
 -13  -5  -6 -4.3114 4.62579   2
 -13   5  -6 1.12205 3.70810   2
 -13   5  -6 6.02144 8.52188   1
 -14  -5  -6 10.9786 5.34586   2
 -14   5  -6 4.93059 3.81814   2
 -14   5  -6 20.6302 9.68860   1
 -15   5  -6 6.90190 16.2886   1
 -15   5  -6 7.11484 3.68609   2
  12  -6  -6 7.60651 3.08292   2
  12  -6  -6 7.90882 3.86898   3
  12   6  -6 9.29395 4.66851   3
  11  -6  -6 20.6529 4.60955   2
  11  -6  -6 19.2998 4.55509   3
  11   6  -6 33.6590 6.21306   3
  10  -6  -6 58.2475 7.11631   2
  10  -6  -6 61.9443 7.02564   3
   9  -6  -6 29.5528 5.28959   3
   9  -6  -6 18.2373 4.11297   2
   9   6  -6 17.8569 4.88827   3
   8  -6  -6 -2.8114 3.33248   2
   8  -6  -6 -1.8660 4.13713   3
   8   6  -6 1.61757 4.02996   3
   7  -6  -6 7.03264 4.36186   3
   7  -6  -6 2.46981 3.73993   2
   7   6  -6 -5.3350 3.91795   2
   7   6  -6 1.15007 3.96163   3
   6  -6  -6 4.68237 3.92672   2
   6  -6  -6 -0.1375 4.01611   3
   6   6  -6 -2.0291 3.91000   2
   6   6  -6 2.08185 3.75624   3
   5  -6  -6 -5.5205 3.28844   2
   5   6  -6 1.30470 4.07066   2
   5   6  -6 3.49849 3.59231   3
   4  -6  -6 3.94960 4.15557   2
   4   6  -6 1.48831 4.51657   2
   3  -6  -6 3.95621 4.61510   2
   3   6  -6 7.90997 5.05379   2
   2  -6  -6 12.1253 4.81662   2
   2   6  -6 12.6703 4.69865   2
   1  -6  -6 0.54498 4.46566   2
   1   6  -6 2.54838 6.35946   1
   1   6  -6 2.58957 4.18966   2
   0  -6  -6 15.5522 5.26807   2
   0   6  -6 16.8030 6.79974   1
   0   6  -6 14.0028 5.12077   2
  -1  -6  -6 13.7642 5.51296   2
  -1   6  -6 16.0570 6.04215   1
  -1   6  -6 1.43136 4.20754   2
  -2  -6  -6 3.09715 4.96645   2
  -2   6  -6 6.68704 4.50054   2
  -2   6  -6 8.79591 5.20377   1
  -3  -6  -6 0.32553 4.31404   2
  -3   6  -6 4.70417 4.91639   2
  -3   6  -6 3.60096 5.02477   1
  -4  -6  -6 -3.3756 4.95288   2
  -4   6  -6 1.34682 4.91328   1
  -4   6  -6 2.94194 4.27352   2
  -5  -6  -6 53.5131 6.63991   2
  -5   6  -6 41.8668 8.25646   1
  -5   6  -6 33.9788 5.14382   2
  -6  -6  -6 31.8897 6.47954   2
  -6   6  -6 22.2295 4.57338   2
  -7  -6  -6 9.70515 4.94889   2
  -7   6  -6 2.12766 3.98536   2
  -8  -6  -6 1.54171 5.23499   2
  -8   6  -6 1.55175 4.14202   2
  -9  -6  -6 3.64561 7.79313   2
  -9   6  -6 4.17940 4.47984   2
 -10  -6  -6 5.70176 5.16496   2
 -10   6  -6 10.6788 4.06112   2
  24   0  -7 -2.4393 5.38317   3
  23   0  -7 1.84612 5.75658   3
  23   0  -7 27.1592 10.0415   1
 -23   0   7 0.35570 13.1178   1
 -22   0   7 1.86979 11.0588   1
  22   0  -7 3.52306 8.02109   3
  21   0  -7 2.58039 7.82247   1
 -21   0   7 2.99414 9.61714   1
  21   0  -7 -8.5172 4.70555   3
  20   0  -7 4.01594 5.11076   3
  20   0  -7 -13.241 5.28226   1
 -20   0   7 7.70860 8.97404   1
  19   0  -7 2.34614 6.70840   1
  19   0  -7 0.39712 5.32634   3
 -19   0   7 -7.4727 7.75850   1
  18   0  -7 6.41112 6.40918   1
  18   0  -7 2.18889 4.73277   3
 -18   0   7 1.66791 7.58231   1
 -17   0   7 -3.8845 6.32429   1
  17   0  -7 0.05854 4.46811   3
  17   0  -7 -0.8016 5.15383   1
 -16   0   7 1.24186 7.29559   1
  16   0  -7 -5.4121 5.31692   1
  16   0  -7 -0.9439 4.32409   3
  15   0  -7 4.66243 7.34363   1
  15   0  -7 1.14495 4.11299   3
 -15   0   7 -2.9367 6.78579   1
  14   0  -7 9.81286 4.63570   3
  14   0  -7 2.77944 5.91021   1
 -14   0   7 5.08873 1.33000   2
 -14   0   7 4.31964 7.36201   1
  13   0  -7 23.9186 4.88268   3
  13   0  -7 21.0070 7.56543   1
 -13   0   7 16.4099 7.68819   1
 -12   0   7 3.89998 1.52015   2
  12   0  -7 5.93555 5.37064   1
  12   0  -7 2.47958 3.99972   3
 -12   0   7 10.1341 7.20211   1
  12   0  -7 0.51549 1.45775   2
  11   0  -7 -2.6209 5.19896   1
 -11   0   7 -1.8124 6.02676   1
  11   0  -7 0.81279 1.49359   2
 -11   0   7 0.65079 3.05728   3
  11   0  -7 -1.6457 3.40345   3
 -11   0   7 -0.7812 1.49335   2
  10   0  -7 -4.6230 4.13274   1
 -10   0   7 -1.6895 4.83689   1
  10   0  -7 0.82298 1.53617   2
 -10   0   7 0.77598 1.51176   2
  -9   0   7 0.29054 1.53259   2
   9   0  -7 -1.1426 1.46496   2
  -9   0   7 -2.9523 2.77626   3
   9   0  -7 0.06364 3.17776   3
  -9   0   7 0.61538 4.71930   1
   9   0  -7 -6.4521 4.34400   1
  -8   0   7 4.61847 1.62763   2
  -8   0   7 12.5275 5.50014   1
  -8   0   7 1.36989 2.84628   3
   8   0  -7 2.92824 2.83626   3
   8   0  -7 0.62315 4.25839   1
   8   0  -7 3.31937 1.54625   2
  -7   0   7 -0.2425 1.51459   2
   7   0  -7 -3.5269 2.58785   3
   7   0  -7 -1.0897 4.16468   1
  -7   0   7 -0.4103 2.37795   3
  -7   0   7 1.53341 4.73740   1
   7   0  -7 -1.3560 1.47365   2
   6   0  -7 3.56334 2.67549   3
   6   0  -7 4.00949 1.72375   2
   6   0  -7 1.67112 4.54149   1
  -6   0   7 1.19325 4.20858   1
  -6   0   7 3.01747 1.71033   2
   5   0  -7 2.67351 1.64424   2
   5   0  -7 1.68380 2.56474   3
  -5   0   7 6.51737 4.52595   1
   5   0  -7 1.17597 3.99025   1
  -4   0   7 -0.9934 4.20392   1
   4   0  -7 -1.6190 4.04856   1
  -4   0   7 2.36456 1.85270   2
   4   0  -7 -1.5867 2.25776   3
   4   0  -7 -1.2769 1.53993   2
   3   0  -7 -1.5566 3.99523   1
   3   0  -7 0.96952 1.91822   2
   3   0  -7 0.05790 2.29330   3
  -3   0   7 0.00108 1.74465   2
  -3   0   7 3.25340 4.58971   1
  -2   0   7 -0.5369 4.04374   1
   2   0  -7 1.34644 1.85078   2
   2   0  -7 -1.8915 2.13431   3
  -2   0   7 -0.9371 1.69734   2
   2   0  -7 -1.8528 3.45387   1
  -1   0   7 -1.1503 4.13138   1
   1   0  -7 1.99364 3.93803   1
   1   0  -7 0.97117 2.11217   2
   1   0  -7 0.72751 2.24842   3
  -1   0   7 -1.3751 1.73670   2
   0   0   7 -3.0511 1.85786   2
   0   0  -7 0.00267 3.89503   1
   0   0  -7 -2.6562 1.75281   2
   0   0   7 -1.4673 3.47719   1
  -1   0  -7 -1.8244 1.83303   2
  -1   0  -7 -2.0290 3.52779   1
   1   0   7 1.68059 3.76722   1
   2   0   7 1.07527 1.80115   2
  -2   0  -7 -1.7634 3.70831   1
  -2   0  -7 0.68724 1.94511   2
   3   0   7 -2.6234 1.87346   2
  -3   0  -7 3.54260 4.50746   1
  -3   0  -7 4.87549 4.11664   1
  -4   0  -7 -2.6138 1.85050   3
  -4   0  -7 -1.9270 2.01544   2
   4   0   7 0.37330 1.77962   2
  -4   0  -7 -3.0048 4.00465   1
  -5   0  -7 1.75255 4.52429   1
  -5   0  -7 -1.4254 4.58435   1
   5   0   7 2.30923 1.88949   2
  -5   0  -7 -1.2235 1.98666   3
  -5   0  -7 -3.4418 2.22586   2
  -6   0  -7 -0.5120 1.99696   3
  -6   0  -7 4.93427 5.05319   1
   6   0   7 -0.6564 2.00816   2
  -6   0  -7 0.19711 4.99725   1
  -7   0  -7 -3.0705 2.42523   2
  -7   0  -7 -0.0695 1.95247   3
  -7   0  -7 -7.9961 5.23813   1
  -7   0  -7 -1.3598 4.88697   1
   7   0   7 0.49741 1.87466   2
  -8   0  -7 8.75758 5.39099   1
  -8   0  -7 0.63589 2.19050   3
  -8   0  -7 4.61042 5.50234   1
  -8   0  -7 -1.3864 2.44174   2
   8   0   7 1.71420 1.98743   2
  -9   0  -7 -0.3600 2.30236   3
  -9   0  -7 -0.7528 2.29917   2
  -9   0  -7 0.26098 4.89142   1
   9   0   7 -1.0941 1.94884   2
  -9   0  -7 1.87630 6.31627   1
  10   0   7 -2.1496 2.17877   2
 -10   0  -7 -1.4075 2.64900   2
 -10   0  -7 -1.7631 2.30062   3
 -10   0  -7 -8.7228 5.33595   1
 -11   0  -7 6.37523 7.21791   1
 -11   0  -7 4.15626 2.91624   3
 -11   0  -7 0.62617 2.59175   2
  11   0   7 -1.2965 2.35559   2
 -12   0  -7 -4.5323 2.76483   3
 -12   0  -7 -0.7005 2.47347   2
  12   0   7 -1.4743 2.43801   2
 -12   0  -7 -4.6976 6.86796   1
 -13   0  -7 -3.5032 2.40614   2
  13   0   7 -2.5755 2.25578   2
 -13   0  -7 -2.9657 7.06605   1
 -14   0  -7 1.51065 3.10056   3
 -14   0  -7 -1.7084 2.38261   2
 -14   0  -7 4.25179 7.90149   1
 -15   0  -7 2.28893 2.62387   2
 -15   0  -7 -1.5397 6.47471   1
 -16   0  -7 -3.1879 2.46747   2
 -16   0  -7 1.49830 7.73749   1
 -17   0  -7 2.16181 2.93685   2
 -17   0  -7 -0.9039 9.63081   1
 -18   0  -7 -1.5110 2.71110   2
 -18   0  -7 3.37234 9.08626   1
 -19   0  -7 -11.920 9.27332   1
 -19   0  -7 -1.1612 2.83711   2
 -20   0  -7 5.30237 3.17561   2
 -20   0  -7 -8.6460 14.2774   1
 -21   0  -7 0.36579 2.94749   2
 -21   0  -7 13.9704 13.9246   1
 -22   0  -7 -1.1449 2.91185   2
  24  -1  -7 13.3078 5.77472   3
  24   1  -7 -10.086 11.3983   1
  24   1  -7 5.01578 6.22631   3
  23  -1  -7 7.80077 5.85658   3
 -23  -1   7 -7.0970 15.1061   1
  23   1  -7 20.2990 11.0903   1
  23   1  -7 8.01726 6.28684   3
 -22  -1   7 -11.033 11.6144   1
  22  -1  -7 5.63786 7.60004   3
  22  -1  -7 2.20782 11.8052   1
  22   1  -7 3.77239 5.98072   3
  22   1  -7 -3.6198 13.6666   1
 -21  -1   7 16.1620 9.95891   1
  21  -1  -7 33.3720 6.89829   3
  21  -1  -7 -1.3003 6.89627   1
  21   1  -7 10.9612 8.53473   1
  21   1  -7 16.1043 11.4893   3
  20  -1  -7 10.2516 5.72592   3
  20  -1  -7 1.99419 6.50172   1
 -20  -1   7 -0.1859 8.52341   1
 -20   1   7 -1.9996 8.08608   1
  20   1  -7 -6.5580 6.69967   1
  20   1  -7 8.38530 6.16716   3
  19  -1  -7 9.64262 5.71029   3
 -19  -1   7 2.01980 8.19944   1
  19  -1  -7 3.85752 6.84763   1
 -19  -1   7 8.17853 1.48161   2
 -19   1   7 7.93839 7.66677   1
  19   1  -7 7.54910 7.96925   1
  19   1  -7 7.28630 5.23120   3
 -18  -1   7 -2.6752 1.60875   2
  18  -1  -7 -3.2550 5.01713   3
 -18  -1   7 8.83371 8.67083   1
  18  -1  -7 4.54177 6.04950   1
  18   1  -7 -1.2317 6.45707   1
 -18   1   7 0.72345 6.80342   1
  18   1  -7 1.35087 5.39655   3
 -17  -1   7 32.2542 10.3302   1
 -17  -1   7 44.5066 3.67050   2
  17  -1  -7 51.6083 6.64765   3
  17  -1  -7 28.5970 8.16721   1
 -17   1   7 36.7469 9.33624   1
  17   1  -7 39.3038 6.22498   3
  17   1  -7 25.4601 8.15395   1
  16  -1  -7 166.861 10.3224   3
 -16  -1   7 149.850 17.6845   1
 -16  -1   7 133.401 6.60954   2
  16  -1  -7 141.994 13.8003   1
 -16   1   7 136.921 14.3426   1
  16   1  -7 122.543 14.4353   1
  16   1  -7 158.748 10.7166   3
 -15  -1   7 14.3830 8.91001   1
  15  -1  -7 3.60241 5.66351   1
  15  -1  -7 3.45793 4.24078   3
 -15  -1   7 8.31726 2.17239   2
 -15   1   7 8.97948 6.43443   1
  15   1  -7 9.85021 6.51875   1
  15   1  -7 12.5441 4.95331   3
  14  -1  -7 0.19150 5.00486   1
 -14  -1   7 11.6559 7.67836   1
 -14  -1   7 0.20548 1.92282   2
  14  -1  -7 0.41663 3.87355   3
  14   1  -7 5.96864 5.97264   1
  14   1  -7 2.02595 1.75110   2
 -14   1   7 -4.6916 5.37190   1
  14   1  -7 1.35034 4.41748   3
  13  -1  -7 14.1570 5.97784   1
  13  -1  -7 11.2470 4.29763   3
 -13  -1   7 -1.6061 7.64333   1
 -13  -1   7 5.97954 2.15942   2
 -13   1   7 7.79838 6.01225   1
  13   1  -7 7.71557 6.02153   1
  13   1  -7 6.85871 4.20590   3
  13   1  -7 9.01912 2.00868   2
  12  -1  -7 44.5588 2.31739   2
 -12  -1   7 44.7341 9.69427   1
  12  -1  -7 37.8683 7.83514   1
  12  -1  -7 40.6343 5.27152   3
  12   1  -7 73.1125 7.65304   3
  12   1  -7 37.3549 8.55226   1
 -12   1   7 38.1010 7.88079   1
  12   1  -7 54.6252 4.10646   2
 -11  -1   7 92.6226 5.53970   2
 -11  -1   7 81.7612 15.5165   1
 -11  -1   7 93.7534 6.99064   3
  11  -1  -7 84.3710 10.3303   1
  11  -1  -7 98.2875 4.26140   2
 -11   1   7 113.667 11.4210   1
  11   1  -7 66.7927 10.8640   1
  11   1  -7 98.5824 5.36445   2
  11   1  -7 101.304 8.35793   3
 -10  -1   7 255.414 11.9202   3
  10  -1  -7 254.784 15.6335   1
  10  -1  -7 276.587 9.92246   2
  10  -1  -7 243.616 12.8515   3
 -10  -1   7 255.393 10.6205   2
  10   1  -7 271.803 17.9959   1
 -10   1   7 235.273 14.9839   1
  10   1  -7 258.481 10.5879   2
  10   1  -7 259.817 12.2569   3
  -9  -1   7 66.5929 5.67300   3
  -9  -1   7 44.9263 10.1457   1
   9  -1  -7 58.6288 7.96264   1
   9  -1  -7 62.8788 3.47505   2
   9  -1  -7 55.4136 5.86156   3
  -9  -1   7 57.0457 4.27961   2
  -9   1   7 63.6803 7.94344   1
   9   1  -7 59.7778 9.06104   1
   9   1  -7 70.4811 6.61855   3
   9   1  -7 62.2582 4.33894   2
   8  -1  -7 181.060 9.01711   3
  -8  -1   7 177.326 14.0479   1
   8  -1  -7 178.366 7.32451   2
  -8  -1   7 170.530 7.83765   2
  -8  -1   7 179.390 8.82223   3
   8  -1  -7 177.753 12.0535   1
  -8   1   7 184.951 11.8566   1
  -8   1   7 178.156 7.26422   2
   8   1  -7 182.486 7.87962   2
   8   1  -7 191.914 9.13002   3
   8   1  -7 156.072 13.1501   1
   7  -1  -7 402.391 14.9716   2
  -7  -1   7 400.963 21.4130   1
  -7  -1   7 386.504 15.2913   2
   7  -1  -7 417.339 16.2298   3
   7  -1  -7 407.970 19.4331   1
  -7  -1   7 395.776 15.9879   3
   7   1  -7 367.891 23.6961   1
  -7   1   7 418.551 18.8354   1
   7   1  -7 385.963 16.0636   3
   7   1  -7 384.414 15.3422   2
  -7   1   7 397.957 14.9334   2
   6  -1  -7 1.23780 3.47607   1
  -6  -1   7 7.81049 5.05599   1
   6  -1  -7 -0.5307 1.43326   2
   6  -1  -7 0.32953 2.77548   3
  -6  -1   7 -1.9684 1.54964   2
  -6  -1   7 -0.3061 2.27827   3
  -6   1   7 2.64156 3.36451   1
   6   1  -7 -3.0963 2.56246   3
   6   1  -7 2.59605 1.73162   2
  -6   1   7 -0.3729 1.33862   2
   5  -1  -7 76.7165 5.35721   3
  -5  -1   7 88.5417 9.64492   1
   5  -1  -7 71.1613 7.50137   1
  -5  -1   7 73.3695 5.11785   3
   5  -1  -7 81.9427 4.39399   2
  -5  -1   7 76.6037 4.67538   2
  -5   1   7 85.3597 7.40591   1
   5   1  -7 74.6441 10.4522   1
  -5   1   7 87.1331 4.27355   2
   5   1  -7 85.6406 4.74431   2
   5   1  -7 93.3840 5.43140   3
   4  -1  -7 -0.8514 3.32975   1
   4  -1  -7 0.58757 1.73323   2
   4  -1  -7 -0.6500 2.71852   3
  -4  -1   7 -2.9008 4.91801   1
  -4  -1   7 -0.0938 1.90775   2
  -4  -1   7 -0.7686 2.15556   3
   4   1  -7 -0.2163 2.23426   3
   4   1  -7 5.47057 5.46509   1
   4   1  -7 -0.5988 1.78161   2
  -4   1   7 1.29141 3.30632   1
  -4   1   7 0.51944 1.38760   2
   3  -1  -7 1778.71 63.3471   2
  -3  -1   7 1759.02 68.6477   1
  -3  -1   7 1802.26 63.5781   3
   3  -1  -7 1756.33 66.7528   1
  -3   1   7 1773.89 63.3199   2
   3   1  -7 1773.33 63.5019   2
   3   1  -7 1789.98 63.5755   3
  -3   1   7 1779.73 66.0453   1
   3   1  -7 1562.16 71.2229   1
  -2  -1   7 17.4841 6.46140   1
   2  -1  -7 23.3380 4.73869   1
   2  -1  -7 14.6957 2.37842   2
   2   1  -7 22.3612 2.73016   2
  -2   1   7 18.9413 2.20589   2
  -2   1   7 21.3690 4.25385   1
   2   1  -7 27.5434 2.79389   3
  -1  -1   7 1003.27 39.6857   2
   1  -1  -7 1123.01 39.6742   2
   1  -1  -7 1106.70 43.1517   1
  -1  -1   7 1066.33 49.8536   1
   1   1  -7 1075.97 47.5368   1
  -1   1   7 1095.81 39.6756   2
   1   1  -7 1090.45 39.5897   3
   1   1  -7 1113.73 39.7809   2
   0  -1   7 589.141 22.3714   2
   0  -1  -7 606.560 22.4021   2
   0  -1   7 612.732 28.4622   1
   0  -1  -7 610.112 25.9225   1
   0   1  -7 598.505 22.1596   3
   0   1  -7 585.825 27.2305   1
   0   1  -7 568.365 22.7746   2
  -1  -1  -7 8.51772 2.61713   2
   1  -1   7 6.42719 1.98590   2
   1  -1   7 6.55022 4.80985   1
  -1  -1  -7 7.94401 4.26952   1
  -1   1  -7 10.6087 4.89470   1
  -1   1  -7 8.25578 1.93193   3
   1   1   7 8.81551 1.98550   2
   2  -1   7 576.994 22.6122   2
  -2  -1  -7 593.245 26.5876   1
  -2  -1  -7 599.210 23.3333   2
  -2  -1  -7 604.399 22.9810   3
   2  -1   7 639.239 27.8417   1
  -2  -1  -7 565.984 26.1175   1
   2   1   7 618.574 22.6691   2
  -2   1  -7 594.226 22.2588   3
  -2   1  -7 620.277 23.3001   2
  -2   1  -7 612.993 27.6580   1
  -3  -1  -7 3.76671 4.46272   1
  -3  -1  -7 -2.2949 2.32103   3
   3  -1   7 -1.5269 4.14265   1
   3  -1   7 -0.9075 1.92767   2
  -3  -1  -7 0.07550 2.12044   2
  -3  -1  -7 0.70070 3.95116   1
  -3   1  -7 -0.7662 2.15511   2
  -3   1  -7 -3.3754 3.91689   1
  -3   1  -7 1.15651 1.61450   3
   3   1   7 -3.6700 1.83417   2
   4  -1   7 351.213 14.0076   2
  -4  -1  -7 350.648 14.3681   3
  -4  -1  -7 371.204 18.4925   1
  -4  -1  -7 344.658 17.9192   1
  -4   1  -7 344.607 13.4746   3
  -4   1  -7 355.446 14.1531   2
   4   1   7 360.013 14.0596   2
  -4   1  -7 351.372 18.9776   1
  -4   1  -7 360.554 19.1450   1
  -5  -1  -7 182.379 8.17230   2
  -5  -1  -7 169.656 8.19505   3
   5  -1   7 162.280 7.80241   2
  -5  -1  -7 181.923 12.8245   1
  -5   1  -7 180.590 7.19673   3
  -5   1  -7 162.640 13.4364   1
  -5   1  -7 161.272 12.4508   1
   5   1   7 161.086 7.80621   2
  -6  -1  -7 723.006 27.4449   3
  -6  -1  -7 724.994 32.4171   1
   6  -1   7 719.423 27.0572   2
  -6  -1  -7 734.474 27.2605   2
  -6   1  -7 686.325 32.4896   1
   6   1   7 699.423 27.1375   2
  -6   1  -7 740.059 26.5799   3
  -6   1  -7 752.752 33.1777   1
  -6   1  -7 724.852 27.2701   2
  -7  -1  -7 443.928 23.3135   1
  -7  -1  -7 458.272 17.8647   2
   7  -1   7 460.906 17.6410   2
  -7  -1  -7 446.009 18.0443   3
  -7   1  -7 472.272 17.8170   2
  -7   1  -7 445.399 17.0723   3
   7   1   7 467.406 17.8063   2
  -7   1  -7 441.946 23.4524   1
  -7   1  -7 437.260 23.2140   1
   8  -1   7 2.06555 2.06093   2
  -8  -1  -7 5.49357 2.95037   3
  -8  -1  -7 4.48998 5.51252   1
  -8  -1  -7 1.35565 2.89648   2
  -8   1  -7 -1.6108 2.51190   2
  -8   1  -7 3.90000 5.24565   1
  -8   1  -7 3.46228 1.91355   3
  -8   1  -7 4.55836 5.66701   1
   9  -1   7 2.37436 2.26870   2
  -9  -1  -7 6.85476 4.17888   3
  -9  -1  -7 5.87524 5.79505   1
  -9  -1  -7 2.45586 2.72731   2
  -9   1  -7 4.80427 5.96395   1
  -9   1  -7 -2.3006 5.16112   1
  -9   1  -7 2.35267 2.62458   2
  -9   1  -7 6.04152 2.91145   3
 -10  -1  -7 674.783 27.6124   3
 -10  -1  -7 759.823 35.6870   1
 -10  -1  -7 727.877 27.3672   2
  10  -1   7 724.502 27.0792   2
 -10   1  -7 716.810 26.6365   3
 -10   1  -7 721.936 27.1881   2
 -10   1  -7 682.793 34.1769   1
 -10   1  -7 742.928 34.8902   1
 -11  -1  -7 157.282 15.3946   1
 -11  -1  -7 143.161 7.96237   2
 -11  -1  -7 127.539 8.17200   3
  11  -1   7 149.499 7.39962   2
 -11   1  -7 147.685 7.67235   2
 -11   1  -7 137.483 15.2739   1
 -11   1  -7 147.973 13.6833   1
 -11   1  -7 143.515 6.82920   3
 -12  -1  -7 165.654 9.00723   2
 -12  -1  -7 183.986 16.2462   1
  12  -1   7 180.608 8.49780   2
  12   1   7 190.026 15.0719   1
 -12   1  -7 163.895 7.97953   3
 -12   1  -7 177.422 15.1700   1
 -12   1  -7 193.924 16.3182   1
 -12   1  -7 187.401 8.79901   2
  13  -1   7 107.737 6.17281   2
 -13  -1  -7 117.232 13.4986   1
 -13  -1  -7 111.398 7.07533   2
 -13   1  -7 115.645 6.60478   2
 -13   1  -7 103.692 5.87666   3
 -13   1  -7 81.7180 12.4831   1
  13   1   7 148.907 21.6607   1
 -13   1  -7 112.042 16.9018   1
  14  -1   7 6.42263 2.35751   2
 -14  -1  -7 1.48700 2.85518   2
 -14  -1  -7 4.73284 8.13708   1
 -14   1  -7 9.24411 2.96935   2
 -14   1  -7 2.44946 6.54713   1
 -14   1  -7 7.50264 2.56755   3
  14   1   7 5.55393 3.56468   3
 -14   1  -7 -3.6209 6.04453   1
  14   1   7 -0.4434 5.93334   1
  15  -1   7 188.453 8.60672   2
 -15  -1  -7 146.443 25.6209   1
 -15  -1  -7 187.004 9.40158   2
 -15   1  -7 155.281 16.4076   1
  15   1   7 188.989 10.1296   3
 -15   1  -7 186.725 17.4531   1
  15   1   7 177.327 16.9925   1
 -15   1  -7 167.467 8.33479   3
 -15   1  -7 182.368 8.81350   2
 -16  -1  -7 -3.4830 8.57636   1
 -16  -1  -7 -2.2196 3.30651   2
 -16   1  -7 -12.143 6.98507   1
  16   1   7 4.19784 3.67099   3
 -16   1  -7 0.37517 2.73719   2
 -16   1  -7 4.34451 2.53372   3
 -16   1  -7 -1.4068 7.25875   1
  16   1   7 4.90861 7.34634   1
 -17  -1  -7 19.8827 10.1627   1
 -17  -1  -7 8.88132 3.52482   2
 -17   1  -7 1.72198 7.94355   1
 -17   1  -7 16.9180 10.4339   1
 -17   1  -7 15.5494 3.21976   2
  17   1   7 24.7177 9.07770   1
  17   1   7 23.4855 4.81913   3
 -18  -1  -7 230.391 10.9565   2
 -18  -1  -7 196.512 20.9540   1
  18   1   7 242.376 20.1715   1
 -18   1  -7 204.001 9.93189   3
  18   1   7 224.568 11.9613   3
 -18   1  -7 211.587 19.3977   1
 -18   1  -7 224.926 10.3754   2
 -18   1  -7 213.739 20.3892   1
 -19  -1  -7 20.5676 10.9267   1
 -19  -1  -7 5.31505 3.36157   2
 -19   1  -7 11.8196 8.86039   1
 -19   1  -7 3.92031 2.92272   2
  19   1   7 19.2635 8.73015   1
 -19   1  -7 -9.7164 10.1302   1
 -20  -1  -7 -3.9566 3.02331   2
 -20  -1  -7 -1.4340 13.1977   1
 -20   1  -7 -0.6973 2.73875   2
 -20   1  -7 9.48394 12.1485   1
  20   1   7 3.15171 9.52802   1
 -21  -1  -7 -13.619 15.0648   1
 -21  -1  -7 15.7811 6.18585   2
 -21   1  -7 21.6289 15.2767   1
 -21   1  -7 11.6821 3.11054   2
 -22  -1  -7 15.3814 3.73990   2
 -22   1  -7 16.4069 3.23946   2
 -23  -2   7 32.9185 26.6958   1
  23  -2  -7 0.58904 4.89193   3
  23   2  -7 -5.9796 5.44923   3
  23   2  -7 -2.8319 17.5300   1
  22  -2  -7 -1.6295 7.75409   1
 -22  -2   7 -7.0139 18.9452   1
  22   2  -7 -1.6755 6.09673   3
 -22   2   7 2.51640 10.2515   1
  22   2  -7 3.84473 9.15375   1
 -21  -2   7 4.77856 2.38430   2
  21  -2  -7 1.56920 7.21603   1
 -21  -2   7 26.3353 13.3629   1
  21  -2  -7 4.00280 4.93760   3
  21   2  -7 0.22286 9.57578   1
  21   2  -7 10.4676 6.68159   3
 -21   2   7 -5.2319 8.12003   1
 -20  -2   7 0.21241 2.34016   2
  20  -2  -7 2.19076 6.26531   1
 -20  -2   7 -1.5222 10.7130   1
  20  -2  -7 -2.9720 4.63262   3
 -20   2   7 7.16977 7.48189   1
  20   2  -7 -9.1340 7.35536   1
  20   2  -7 1.50107 6.92494   3
 -19  -2   7 44.5274 4.63835   2
 -19  -2   7 14.9552 10.7307   1
  19  -2  -7 34.0558 8.46870   1
  19  -2  -7 46.7885 6.79260   3
  19   2  -7 32.9478 6.39745   3
 -19   2   7 19.3864 8.07645   1
  19   2  -7 34.1375 9.91159   1
  18  -2  -7 -10.736 5.00073   1
 -18  -2   7 2.01371 2.54827   2
  18  -2  -7 2.49239 4.35880   3
 -18  -2   7 1.78677 8.64503   1
 -18   2   7 -2.5962 5.76477   1
  18   2  -7 -2.2145 6.57547   1
  18   2  -7 -1.4466 4.70278   3
 -17  -2   7 -3.7324 2.33861   2
  17  -2  -7 0.91668 4.08585   3
 -17  -2   7 14.5435 10.4420   1
  17  -2  -7 -9.3514 4.63233   1
  17   2  -7 0.47952 4.67785   3
  17   2  -7 4.01294 8.43568   1
 -17   2   7 -12.319 4.85130   1
  16  -2  -7 17.2152 6.45970   1
 -16  -2   7 20.8256 3.12546   2
  16  -2  -7 24.0048 5.24151   3
 -16  -2   7 25.1473 10.2448   1
  16   2  -7 23.0731 5.70655   3
 -16   2   7 22.8183 6.59785   1
  16   2  -7 18.6418 7.89011   1
 -15  -2   7 13.3620 9.15148   1
  15  -2  -7 2.68934 3.87077   3
  15  -2  -7 -0.4662 5.10174   1
 -15  -2   7 3.69961 2.57419   2
 -15   2   7 4.81100 5.05026   1
  15   2  -7 -7.8442 5.90384   1
  15   2  -7 3.19625 4.88477   3
  15   2  -7 6.47305 2.34113   2
  14  -2  -7 2.83510 4.00851   3
 -14  -2   7 2.69295 7.74147   1
 -14  -2   7 4.16151 2.54383   2
  14  -2  -7 5.84246 4.94078   1
 -14   2   7 10.4652 4.98041   1
  14   2  -7 13.7742 5.15968   3
  14   2  -7 6.91206 6.68949   1
  14   2  -7 7.37814 2.42597   2
 -13  -2   7 31.2509 9.63851   1
  13  -2  -7 37.2478 5.46237   3
 -13  -2   7 32.3538 3.53255   2
  13  -2  -7 26.7557 6.62931   1
 -13   2   7 33.1279 5.83540   1
  13   2  -7 45.4707 6.01862   3
  13   2  -7 23.9755 3.04267   2
  13   2  -7 40.6199 9.42499   1
  12  -2  -7 179.290 7.36357   2
  12  -2  -7 197.172 7.40698   2
  12  -2  -7 192.600 10.4504   3
  12  -2  -7 195.164 13.8232   1
 -12  -2   7 211.799 9.30443   2
 -12  -2   7 188.612 18.5750   1
  12   2  -7 223.465 11.3859   3
 -12   2   7 189.666 12.1300   1
  12   2  -7 199.024 16.3943   1
  12   2  -7 188.874 9.00986   2
  11  -2  -7 54.4112 9.38189   1
  11  -2  -7 56.8004 3.13952   2
  11  -2  -7 60.3978 3.23378   2
 -11  -2   7 43.3007 5.15119   2
 -11  -2   7 58.0705 11.1240   1
  11  -2  -7 52.6484 5.44675   3
  11   2  -7 63.0886 7.24932   3
  11   2  -7 45.4544 4.91120   2
  11   2  -7 59.7886 10.5028   1
 -11   2   7 55.4026 7.17660   1
 -10  -2   7 1391.59 49.1813   2
  10  -2  -7 1303.17 48.3071   2
  10  -2  -7 1344.81 48.2940   2
 -10  -2   7 1092.24 50.1329   3
 -10  -2   7 1402.89 58.0290   1
  10   2  -7 1328.85 56.8024   1
  10   2  -7 1339.14 49.2299   2
  10   2  -7 1491.07 50.3804   3
 -10   2   7 1378.44 51.1651   1
   9  -2  -7 96.4785 7.51926   3
  -9  -2   7 79.8647 7.29923   3
   9  -2  -7 114.183 11.0530   1
  -9  -2   7 99.8716 6.39807   2
   9  -2  -7 125.422 5.18361   2
  -9  -2   7 113.270 13.5173   1
   9   2  -7 73.4389 7.81621   3
  -9   2   7 104.128 7.68031   1
   9   2  -7 113.168 6.52378   2
   9   2  -7 130.603 13.8089   1
   8  -2  -7 695.991 28.7992   1
   8  -2  -7 666.609 28.7051   3
   8  -2  -7 704.197 24.6553   2
  -8  -2   7 677.382 26.4661   3
  -8  -2   7 680.186 25.2902   2
  -8  -2   7 719.291 33.5223   1
   8   2  -7 660.200 32.4146   1
   8   2  -7 663.589 25.3745   2
   8   2  -7 524.342 26.8459   3
  -8   2   7 689.086 26.2605   1
  -7  -2   7 -1.0806 2.06526   2
   7  -2  -7 2.46372 3.64278   1
   7  -2  -7 1.45234 3.83991   3
  -7  -2   7 -3.8392 2.50938   3
  -7  -2   7 -2.3372 6.06705   1
   7  -2  -7 0.96345 1.79244   2
   7   2  -7 -0.3471 5.40096   1
   7   2  -7 -0.7241 2.51252   2
  -7   2   7 2.58349 2.37655   1
   7   2  -7 -1.4070 2.91540   3
   6  -2  -7 67.9144 4.29701   2
   6  -2  -7 59.5186 6.70949   1
  -6  -2   7 64.2164 4.98265   2
  -6  -2   7 76.3588 5.34503   3
   6  -2  -7 63.4670 5.95740   3
  -6  -2   7 63.8969 9.51836   1
   6   2  -7 73.3761 9.63542   1
   6   2  -7 63.0115 5.13356   2
   6   2  -7 79.3476 5.76010   3
  -5  -2   7 47.0170 8.35069   1
  -5  -2   7 50.7760 4.60791   3
   5  -2  -7 55.7709 3.98645   2
   5  -2  -7 47.0723 6.18919   1
  -5  -2   7 55.2295 4.58263   2
   5  -2  -7 60.4395 5.24647   3
   5   2  -7 52.2614 4.63955   2
   5   2  -7 52.7905 5.01824   3
   5   2  -7 49.1152 8.00174   1
   4  -2  -7 -0.8428 3.09688   1
  -4  -2   7 6.72255 2.54666   2
  -4  -2   7 6.04199 5.85860   1
  -4  -2   7 3.14680 2.29278   3
   4  -2  -7 3.51041 1.99966   2
   4   2  -7 4.21925 2.33699   3
   4   2  -7 7.69289 5.78527   1
   4   2  -7 0.68824 2.41168   2
  -3  -2   7 -0.1278 2.18942   3
  -3  -2   7 0.44309 2.26914   2
   3  -2  -7 -1.9382 3.49700   1
   3  -2  -7 0.17537 2.17213   2
  -3  -2   7 0.55370 5.09696   1
   3   2  -7 -1.8187 2.03069   3
   3   2  -7 1.12786 4.61821   1
   3   2  -7 -4.3843 2.09214   2
  -2  -2   7 343.488 14.1862   2
   2  -2  -7 326.943 14.5485   2
  -2  -2   7 380.510 19.9832   1
  -2  -2   7 370.232 13.9163   3
   2  -2  -7 369.295 18.3278   1
   2   2  -7 360.649 14.3229   2
   2   2  -7 341.250 19.3072   1
   2   2  -7 350.785 13.9467   3
   1  -2  -7 671.538 25.0998   2
  -1  -2   7 637.112 25.9232   3
   1  -2  -7 674.789 27.7711   1
  -1  -2   7 662.329 25.1809   2
  -1  -2   7 691.857 31.0355   1
   1   2  -7 669.093 25.2993   2
   1   2  -7 679.855 30.9588   1
   1   2  -7 658.019 24.7602   3
   0  -2  -7 1426.26 56.2520   1
   0  -2  -7 1494.29 56.4901   1
   0  -2   7 1505.77 59.4932   1
   0  -2   7 1503.91 53.6597   2
   0   2  -7 1451.14 59.0824   1
   0   2  -7 1465.00 53.7198   2
   0   2  -7 1447.33 53.0866   3
   1  -2   7 3.28496 5.09037   1
  -1  -2  -7 0.03363 2.27665   2
   1  -2   7 1.40364 2.35020   2
  -1  -2  -7 -0.1592 3.42100   1
  -1  -2  -7 5.06843 4.00437   1
  -1  -2  -7 -1.0098 2.70087   3
  -1   2  -7 -0.0036 4.41248   1
  -1   2  -7 -1.0854 2.49934   2
  -1   2  -7 3.72636 1.71552   3
   2  -2   7 679.628 25.3449   2
  -2  -2  -7 661.959 25.3429   2
  -2  -2  -7 676.348 28.6814   1
  -2  -2  -7 674.955 25.7915   3
  -2  -2  -7 669.625 28.7803   1
   2  -2   7 663.414 30.7789   1
  -2   2  -7 667.172 30.6928   1
  -2   2  -7 657.023 24.4668   3
  -2   2  -7 682.828 25.4664   2
   3  -2   7 169.260 7.92866   2
  -3  -2  -7 170.724 8.15722   2
  -3  -2  -7 180.855 11.8184   1
  -3  -2  -7 164.109 8.48891   3
   3  -2   7 156.879 12.6283   1
  -3   2  -7 174.271 8.22265   2
  -3   2  -7 165.699 12.6539   1
  -3   2  -7 164.313 6.67606   3
  -4  -2  -7 77.5122 5.63072   2
   4  -2   7 70.0063 9.48567   1
  -4  -2  -7 68.0994 8.10084   3
   4  -2   7 84.5440 5.26811   2
  -4  -2  -7 89.2996 9.02662   1
  -4   2  -7 82.0973 3.56037   3
  -4   2  -7 83.5067 5.60866   2
  -4   2  -7 68.8972 9.19473   1
  -4   2  -7 84.9887 9.66951   1
  -5  -2  -7 103.859 6.62975   3
  -5  -2  -7 99.0335 6.37272   2
   5  -2   7 98.2518 5.88277   2
  -5  -2  -7 103.329 10.1098   1
  -5   2  -7 94.9001 3.87725   3
  -5   2  -7 96.9257 6.09304   2
  -5   2  -7 116.111 11.6575   1
  -5   2  -7 93.8354 10.2007   1
  -6  -2  -7 21.0739 3.67566   3
  -6  -2  -7 20.9026 6.25268   1
   6  -2   7 17.8448 2.80787   2
  -6  -2  -7 14.0017 3.07843   2
  -6   2  -7 10.5535 6.67584   1
  -6   2  -7 21.5242 3.31813   2
  -6   2  -7 23.9728 7.01184   1
  -7  -2  -7 1679.90 65.1989   1
  -7  -2  -7 1615.52 58.9319   2
   7  -2   7 1616.87 58.7069   2
  -7  -2  -7 1484.04 59.2921   3
  -7   2  -7 1570.52 65.2252   1
  -7   2  -7 1616.89 65.1959   1
  -7   2  -7 1684.87 58.8608   2
  -8  -2  -7 810.487 31.6354   2
  -8  -2  -7 885.057 38.5566   1
   8  -2   7 815.649 31.3064   2
  -8   2  -7 840.215 31.4773   2
  -8   2  -7 861.751 38.5855   1
  -8   2  -7 815.836 37.9788   1
   9  -2   7 23.8946 3.14366   2
  -9  -2  -7 26.4787 3.76389   2
  -9  -2  -7 33.7496 10.3465   1
  -9   2  -7 27.2248 3.46640   2
  -9   2  -7 43.2973 9.02560   1
  -9   2  -7 30.3319 8.55697   1
 -10  -2  -7 362.395 15.1188   2
  10  -2   7 357.575 14.5546   2
 -10  -2  -7 343.779 22.3858   1
 -10   2  -7 354.652 21.7596   1
 -10   2  -7 355.140 14.7531   2
 -11  -2  -7 32.7659 4.16697   2
  11  -2   7 42.5684 4.74765   2
 -11  -2  -7 34.5695 9.53570   1
 -11   2  -7 33.6058 8.51310   1
 -11   2  -7 51.0253 4.50100   2
 -11   2  -7 31.8989 8.86716   1
  12  -2   7 420.622 16.8133   2
 -12  -2  -7 420.260 17.5224   2
 -12  -2  -7 410.636 25.2483   1
 -12   2  -7 440.277 25.3201   1
  12   2   7 398.638 24.0563   1
 -12   2  -7 417.990 17.0047   2
 -12   2  -7 431.417 25.6054   1
  13  -2   7 6.35722 2.61161   2
 -13  -2  -7 9.52561 8.11629   1
 -13  -2  -7 10.1899 3.60013   2
  13   2   7 2.74945 5.81201   1
 -13   2  -7 14.1155 7.55856   1
 -13   2  -7 5.28519 8.02564   1
 -13   2  -7 10.3672 3.11887   2
 -14  -2  -7 1.13337 3.47629   2
 -14  -2  -7 3.25766 8.16857   1
  14  -2   7 1.86657 2.55821   2
 -14   2  -7 2.22473 2.69639   2
 -14   2  -7 -2.4391 6.98962   1
  14   2   7 -3.9061 5.73260   1
 -14   2  -7 0.82949 6.21769   1
 -15  -2  -7 82.1129 14.4019   1
 -15  -2  -7 84.4630 7.23177   2
  15  -2   7 80.3266 6.16028   2
  15   2   7 89.1665 8.00887   3
 -15   2  -7 84.1410 6.09507   2
 -15   2  -7 65.4043 11.1732   1
 -15   2  -7 86.3258 13.4297   1
  15   2   7 85.8426 11.7974   1
 -16  -2  -7 64.2872 7.01261   2
  16  -2   7 65.3015 5.00859   2
 -16  -2  -7 86.7992 14.7792   1
 -16   2  -7 70.9886 11.8729   1
  16   2   7 64.4849 10.8836   1
 -16   2  -7 56.7370 3.00027   3
  16   2   7 74.0867 7.81921   3
 -16   2  -7 67.9084 12.7109   1
 -16   2  -7 63.8716 5.68190   2
  17  -2   7 5.98850 2.39698   2
 -17  -2  -7 18.8277 11.0774   1
 -17  -2  -7 6.30961 3.88648   2
 -17   2  -7 3.80509 8.99027   1
  17   2   7 6.69985 4.92995   3
 -17   2  -7 5.01411 2.86446   2
 -17   2  -7 -1.4509 7.67138   1
 -18  -2  -7 8.17801 5.22345   2
 -18  -2  -7 15.1187 12.2091   1
  18  -2   7 2.65445 2.41287   2
 -18   2  -7 28.4133 12.7133   1
  18   2   7 2.76182 8.09245   1
  18   2   7 5.44339 4.88307   3
 -18   2  -7 18.0161 9.94807   1
 -18   2  -7 3.73379 2.80511   2
 -19  -2  -7 0.47595 3.57791   2
 -19   2  -7 -10.332 14.8795   1
 -19   2  -7 0.29883 2.57675   2
 -20  -2  -7 -0.5839 3.49433   2
 -20  -2  -7 10.7155 14.6069   1
 -20   2  -7 2.16856 2.65026   2
 -21  -2  -7 -0.7274 3.67017   2
 -21   2  -7 5.05887 2.75400   2
 -22  -3   7 37.6520 21.1255   1
  22  -3  -7 16.9076 5.21349   3
  22   3  -7 27.5558 7.41550   3
 -21  -3   7 -30.712 15.1313   1
  21  -3  -7 2.08892 4.94651   3
  21   3  -7 4.94093 6.49406   3
  21   3  -7 -7.6485 10.9262   1
  20  -3  -7 -1.0725 7.07767   1
 -20  -3   7 -14.958 13.2995   1
  20  -3  -7 10.1990 4.77462   3
  20   3  -7 -8.3855 8.96718   1
  20   3  -7 20.4402 6.97126   3
 -19  -3   7 18.7508 13.1678   1
  19  -3  -7 3.07875 4.88763   3
  19  -3  -7 7.72974 6.85229   1
  19   3  -7 9.72491 9.38299   1
 -19   3   7 1.80564 4.03725   1
  19   3  -7 11.4398 6.24935   3
 -18  -3   7 6.70264 11.6101   1
  18  -3  -7 2.96195 4.07169   3
  18  -3  -7 -5.4711 5.87195   1
  18   3  -7 10.7120 7.91130   1
 -18   3   7 2.02187 3.23159   1
 -18   3   7 0.91521 2.88308   1
  18   3  -7 -6.2376 7.10865   3
  17  -3  -7 -2.2183 5.06861   1
  17  -3  -7 3.99603 4.37246   3
 -17  -3   7 -22.203 8.64937   1
  17   3  -7 17.9387 8.73823   1
  17   3  -7 7.02892 5.04229   3
 -16  -3   7 -1.8274 3.05159   2
 -16  -3   7 6.42143 10.1625   1
  16  -3  -7 -1.2418 4.12768   3
  16  -3  -7 0.87373 4.83134   1
  16   3  -7 3.56306 6.87770   1
  16   3  -7 -3.5391 4.41064   3
 -15  -3   7 9.75017 3.34321   2
 -15  -3   7 1.28122 8.99498   1
  15  -3  -7 6.40192 3.93313   3
  15  -3  -7 17.3059 5.63333   1
  15   3  -7 18.0569 5.25546   3
  15   3  -7 3.74844 7.68471   1
  14  -3  -7 19.6208 4.60700   3
 -14  -3   7 27.1492 3.92705   2
 -14  -3   7 -6.9308 12.9370   1
  14  -3  -7 18.8605 5.60666   1
  14   3  -7 24.2452 3.78972   2
  14   3  -7 21.6989 8.38296   1
  14   3  -7 49.6787 6.59374   3
 -13  -3   7 0.63093 2.77086   2
  13  -3  -7 1.86532 3.89583   3
  13  -3  -7 -0.9309 3.94429   1
  13  -3  -7 2.24082 1.18455   2
  13  -3  -7 0.75372 1.14597   2
 -13  -3   7 -6.4723 7.96758   1
  13   3  -7 -1.6356 2.57673   2
  13   3  -7 -2.4870 4.15856   3
  13   3  -7 -1.6185 5.90983   1
  12  -3  -7 2.63293 1.54063   2
  12  -3  -7 0.00331 4.08719   1
  12  -3  -7 1.78028 1.50414   2
 -12  -3   7 -0.5842 7.52928   1
  12  -3  -7 2.72510 3.99759   3
 -12  -3   7 7.41037 3.84060   2
  12   3  -7 1.03618 7.06820   1
  12   3  -7 7.23761 4.32478   3
  12   3  -7 3.75666 2.99545   2
 -11  -3   7 92.4096 14.1649   1
  11  -3  -7 95.3364 8.79830   1
  11  -3  -7 86.4079 4.69812   2
  11  -3  -7 93.3425 4.80524   2
  11  -3  -7 93.8247 7.36657   3
  11   3  -7 101.208 8.12880   3
  11   3  -7 75.5033 18.0265   1
  11   3  -7 83.7687 6.51474   2
 -10  -3   7 -12.902 7.19616   1
  10  -3  -7 2.72298 1.72510   2
  10  -3  -7 -1.5095 1.75820   2
  10  -3  -7 -1.3909 3.55926   3
  10  -3  -7 1.07329 3.51039   1
 -10  -3   7 -1.7133 3.16152   2
  10   3  -7 0.67458 6.75439   1
  10   3  -7 3.74777 3.67337   3
  10   3  -7 1.57963 2.86606   2
   9  -3  -7 18.3938 4.13206   3
  -9  -3   7 17.2495 3.30651   2
   9  -3  -7 14.7400 2.38610   2
  -9  -3   7 16.1028 8.77667   1
   9  -3  -7 11.7401 3.94710   1
   9   3  -7 17.7524 3.73314   2
   9   3  -7 7.95626 6.43473   1
   9   3  -7 13.1020 4.05145   3
  -8  -3   7 78.2703 6.36811   2
   8  -3  -7 76.5773 6.89649   1
   8  -3  -7 76.4415 6.88364   3
  -8  -3   7 73.0099 6.27314   3
  -8  -3   7 65.2295 11.8282   1
   8  -3  -7 79.0495 4.92985   2
   8   3  -7 70.2617 10.5944   1
   8   3  -7 93.3251 8.68672   3
   8   3  -7 80.6658 6.45541   2
  -7  -3   7 244.071 11.6307   2
   7  -3  -7 249.158 10.5443   2
  -7  -3   7 256.552 11.5586   3
   7  -3  -7 240.696 10.5803   2
   7  -3  -7 228.204 12.1397   1
   7  -3  -7 255.169 12.1677   3
  -7  -3   7 215.447 18.2073   1
   7   3  -7 260.064 18.7117   1
   7   3  -7 256.193 11.7223   2
   7   3  -7 263.952 11.9047   3
  -6  -3   7 976.017 35.7234   3
  -6  -3   7 943.481 35.7474   2
  -6  -3   7 960.669 43.4717   1
   6  -3  -7 961.215 36.5713   1
   6  -3  -7 907.642 35.1274   2
   6   3  -7 910.664 42.1700   1
   6   3  -7 993.964 35.9223   2
   6   3  -7 938.510 35.7494   3
   5  -3  -7 151.569 7.75268   2
   5  -3  -7 160.292 8.81967   1
  -5  -3   7 157.594 8.66350   2
   5  -3  -7 155.247 7.73843   2
  -5  -3   7 161.588 14.9935   1
  -5  -3   7 153.166 8.21988   3
   5   3  -7 150.312 8.42457   3
   5   3  -7 146.166 14.5041   1
   5   3  -7 155.519 8.63994   2
  -4  -3   7 1329.13 56.2859   1
   4  -3  -7 1357.24 50.0573   1
   4  -3  -7 1333.82 48.8739   2
  -4  -3   7 1361.66 48.9269   3
  -4  -3   7 1317.39 49.2831   2
   4   3  -7 1298.05 48.9108   3
   4   3  -7 1333.56 49.3622   2
   4   3  -7 1331.18 55.9898   1
  -3  -3   7 276.667 18.8500   1
  -3  -3   7 254.811 11.7339   2
   3  -3  -7 252.804 12.1596   1
   3  -3  -7 252.425 12.2943   1
  -3  -3   7 253.237 10.9909   3
   3  -3  -7 260.943 11.3127   2
   3   3  -7 261.748 11.0487   3
   3   3  -7 266.632 11.8571   2
   3   3  -7 238.139 17.2158   1
  -2  -3   7 3.21450 2.27748   3
   2  -3  -7 0.03868 2.73731   2
  -2  -3   7 2.79539 2.85526   2
  -2  -3   7 0.81825 6.78367   1
   2  -3  -7 0.84697 3.05739   1
   2  -3  -7 -1.8753 2.89167   1
   2  -3  -7 1.39627 3.49271   3
   2   3  -7 -6.0624 4.63240   1
   2   3  -7 5.78397 3.24581   2
   2   3  -7 4.97352 2.45640   3
   1  -3  -7 1.20174 2.95114   3
  -1  -3   7 -2.0579 5.53343   1
   1  -3  -7 -1.6842 2.48756   2
   1  -3  -7 4.19985 3.29871   1
  -1  -3   7 1.76556 2.01660   3
  -1  -3   7 0.15527 2.52153   2
   1  -3  -7 -0.8074 3.07640   1
   1   3  -7 1.39608 2.02848   3
   1   3  -7 2.43384 5.22356   1
   1   3  -7 3.63887 2.84510   2
   0  -3   7 -0.2821 1.75739   3
   0  -3   7 -0.4628 5.44903   1
   0  -3   7 -2.8364 2.54924   2
   0  -3  -7 -2.4076 2.55341   2
   0  -3  -7 1.18244 3.37778   1
   0  -3  -7 0.26370 3.50635   1
   0  -3  -7 -1.2988 2.89070   3
   0   3  -7 -0.1123 1.77729   3
   0   3  -7 2.02274 2.83948   2
   0   3  -7 -1.7960 4.55138   1
   1  -3   7 1077.34 44.7573   1
  -1  -3  -7 840.976 38.8102   3
  -1  -3  -7 1018.35 37.8813   2
   1  -3   7 1045.71 37.9931   2
  -1  -3  -7 1026.38 40.5956   1
  -1  -3  -7 1064.52 40.6277   1
  -1   3  -7 1003.10 43.7639   1
  -1   3  -7 1005.98 36.7659   3
  -1   3  -7 1062.90 38.1523   2
  -2  -3  -7 680.683 26.3725   2
  -2  -3  -7 673.520 34.1037   1
   2  -3   7 751.390 33.4321   1
   2  -3   7 681.346 26.3801   2
  -2   3  -7 687.647 32.3997   1
  -2   3  -7 666.790 26.4898   2
  -2   3  -7 675.074 24.8642   3
   3  -3   7 531.189 25.8100   1
   3  -3   7 477.960 19.1791   2
  -3  -3  -7 482.316 19.3758   2
  -3  -3  -7 447.736 24.8033   1
  -3   3  -7 476.911 19.3993   2
  -3   3  -7 477.628 25.1041   1
   4  -3   7 141.178 7.76617   2
  -4  -3  -7 150.184 11.4791   1
  -4  -3  -7 138.814 8.16788   2
   4  -3   7 144.521 12.8649   1
  -4   3  -7 148.367 12.3609   1
  -4   3  -7 138.212 8.13475   2
  -5  -3  -7 1.11994 3.04707   2
   5  -3   7 0.74100 2.67408   2
  -5  -3  -7 -2.8912 4.51232   1
  -5   3  -7 1.87898 2.75046   2
   6  -3   7 51.9901 5.13397   2
  -6  -3  -7 49.2193 4.86292   2
  -6  -3  -7 50.0148 7.70294   1
  -6   3  -7 51.5059 8.77020   1
  -6   3  -7 49.7425 4.92159   2
   7  -3   7 32.8817 3.76212   2
  -7  -3  -7 40.3007 4.80824   2
  -7  -3  -7 38.4940 7.84941   1
  -7   3  -7 45.4082 4.43342   2
  -7   3  -7 34.8049 7.64984   1
  -8  -3  -7 8.00451 6.69579   1
  -8  -3  -7 13.7027 3.69420   2
   8  -3   7 9.25396 4.80486   2
  -8   3  -7 16.1809 3.32489   2
  -8   3  -7 13.9380 7.20072   1
  -9  -3  -7 20.3224 3.91011   2
  -9  -3  -7 25.2175 8.22795   1
  -9   3  -7 9.34365 6.89816   1
  -9   3  -7 16.0941 3.38956   2
  10  -3   7 -2.7469 2.60978   2
 -10  -3  -7 7.15797 3.73743   2
 -10  -3  -7 -0.3078 6.55109   1
 -10   3  -7 -2.0897 2.92182   2
 -10   3  -7 -2.0670 5.11524   1
  11  -3   7 66.5551 5.57065   2
 -11  -3  -7 73.8044 7.36938   2
 -11  -3  -7 95.8446 13.0416   1
 -11   3  -7 76.4503 11.5258   1
 -11   3  -7 73.7697 6.36488   2
 -12  -3  -7 137.600 9.11650   2
  12  -3   7 138.174 7.48649   2
 -12  -3  -7 137.630 15.0896   1
 -12   3  -7 119.848 8.04781   2
 -12   3  -7 156.301 14.6654   1
 -13  -3  -7 -1.4536 3.51766   2
  13  -3   7 -0.1339 2.56164   2
 -13  -3  -7 7.06684 7.41286   1
 -13   3  -7 3.03509 3.18210   2
 -13   3  -7 -13.938 7.52770   1
 -13   3  -7 3.59960 7.05279   1
 -14  -3  -7 139.927 18.0394   1
  14  -3   7 112.112 7.63489   2
 -14   3  -7 131.002 7.96584   2
 -14   3  -7 131.074 22.2033   1
 -15  -3  -7 -3.2700 4.09852   2
 -15   3  -7 -5.7456 6.11578   1
  15   3   7 2.27270 6.96695   1
 -15   3  -7 12.6500 7.89678   1
 -15   3  -7 2.90034 3.18763   2
 -16  -3  -7 18.8991 4.48719   2
 -16  -3  -7 28.4716 10.2542   1
 -16   3  -7 20.7023 3.76179   2
 -16   3  -7 -7.7561 7.70563   1
 -17  -3  -7 58.6332 5.87546   2
 -17   3  -7 62.9190 6.16474   2
 -17   3  -7 26.8137 12.2115   1
 -18  -3  -7 1.56800 4.25208   2
 -18   3  -7 7.80922 3.36739   2
 -18   3  -7 -10.034 11.0880   1
 -19  -3  -7 30.2298 5.03974   2
 -19   3  -7 34.4627 4.01993   2
  20  -4  -7 -3.3926 4.54962   3
  20   4  -7 -1.5275 5.62932   3
  19  -4  -7 24.1676 7.32756   1
  19  -4  -7 6.72984 4.40523   3
 -19  -4   7 -0.5417 15.4140   1
  19   4  -7 14.5399 6.35464   3
  18  -4  -7 0.73564 6.04581   1
 -18  -4   7 6.73901 14.1301   1
  18  -4  -7 -1.7096 4.08500   3
  18   4  -7 -6.4918 5.53550   3
  17  -4  -7 14.8374 4.70645   3
  17  -4  -7 21.3913 6.34966   1
  17   4  -7 16.0558 5.80215   3
  16  -4  -7 3.93364 5.09075   1
 -16  -4   7 6.91628 12.1265   1
  16  -4  -7 1.88331 4.22165   3
  16   4  -7 1.62925 7.16465   1
  15  -4  -7 -0.5726 4.49975   1
  15  -4  -7 8.99873 4.61770   3
 -15  -4   7 -12.530 9.43604   1
  15   4  -7 5.18346 9.37615   1
  15   4  -7 6.62100 4.86214   3
  14  -4  -7 -5.0512 3.97983   3
  14  -4  -7 -1.7037 4.16719   1
 -14  -4   7 3.90972 9.02665   1
  14  -4  -7 2.78498 1.39413   2
  14  -4  -7 2.53402 1.46127   2
  14   4  -7 2.89438 8.02133   1
  14   4  -7 3.20969 4.87111   3
 -13  -4   7 2.00231 8.82918   1
  13  -4  -7 10.0105 4.32941   1
  13  -4  -7 6.02493 1.93066   2
  13  -4  -7 2.11035 2.10787   2
  13  -4  -7 4.39705 4.16448   3
  13   4  -7 3.85601 3.18131   2
  13   4  -7 6.78523 5.00503   3
  13   4  -7 -3.0827 6.28227   1
  12  -4  -7 3.07931 3.89752   3
  12  -4  -7 1.92948 1.76500   2
  12  -4  -7 2.56630 3.36874   2
  12  -4  -7 3.12353 3.58411   1
 -12  -4   7 -1.7626 8.18705   1
  12   4  -7 -4.2368 6.12007   1
  12   4  -7 -0.9527 2.87653   2
  12   4  -7 6.32277 4.18801   3
  11  -4  -7 2.99826 3.81620   3
 -11  -4   7 -1.4298 8.71833   1
  11  -4  -7 1.83420 1.90023   2
  11  -4  -7 5.31497 3.12085   1
  11  -4  -7 4.21527 2.33162   2
  11   4  -7 1.00779 3.71468   3
  11   4  -7 6.34781 6.20481   1
  11   4  -7 4.50972 3.04950   2
 -10  -4   7 -15.091 8.02179   1
  10  -4  -7 -0.1043 3.78009   3
  10  -4  -7 -4.5134 2.19172   1
  10  -4  -7 -0.5110 2.21797   2
  10  -4  -7 -1.9144 1.82502   2
  10   4  -7 -4.1768 3.03352   2
  10   4  -7 3.78869 5.90304   1
  10   4  -7 -0.0411 3.49095   3
   9  -4  -7 3.61006 4.00889   3
   9  -4  -7 2.45587 2.10338   2
  -9  -4   7 7.04392 7.44735   1
   9  -4  -7 1.04110 2.28431   2
   9   4  -7 2.26380 3.42699   3
   9   4  -7 -1.0213 3.52426   2
   9   4  -7 -0.0405 6.07225   1
   8  -4  -7 -0.2238 3.97489   3
   8  -4  -7 0.63677 2.58773   2
  -8  -4   7 -12.197 7.61218   1
   8  -4  -7 2.33126 2.33188   2
   8   4  -7 0.79269 6.37186   1
   8   4  -7 -0.9246 3.61815   3
   8   4  -7 0.10300 3.01098   2
  -7  -4   7 14.3998 8.84063   1
   7  -4  -7 12.6750 2.78863   2
   7  -4  -7 6.74400 2.94115   2
   7  -4  -7 8.18809 4.40872   3
   7   4  -7 9.61075 3.77532   3
   7   4  -7 8.82828 7.25074   1
   7   4  -7 9.45748 3.98756   2
  -6  -4   7 50.5389 11.2047   1
   6  -4  -7 46.6244 5.13772   2
   6  -4  -7 39.4063 4.10380   2
  -6  -4   7 49.2258 5.60323   3
   6   4  -7 33.1319 4.51529   2
   6   4  -7 56.4863 6.38641   3
   6   4  -7 43.2356 9.21835   1
  -5  -4   7 119.597 7.59882   3
  -5  -4   7 140.313 15.5184   1
   5  -4  -7 111.893 6.96298   2
   5  -4  -7 106.347 6.74492   2
   5   4  -7 96.4318 7.46785   3
   5   4  -7 88.8249 7.88281   2
   5   4  -7 96.5887 12.6425   1
   4  -4  -7 1.93427 2.25541   2
   4  -4  -7 -2.2034 2.92367   2
  -4  -4   7 -2.1626 2.53382   3
  -4  -4   7 1.41365 7.33855   1
   4   4  -7 9.31674 6.56337   1
   4   4  -7 1.35518 3.33382   2
   4   4  -7 -2.9661 2.74069   3
   3  -4  -7 0.27082 3.03844   2
   3  -4  -7 4.16501 4.65025   2
  -3  -4   7 4.00187 2.50769   3
  -3  -4   7 4.07626 6.67121   1
   3   4  -7 4.45899 2.64535   3
   3   4  -7 14.7651 6.98829   1
   3   4  -7 5.69021 3.35803   2
   2  -4  -7 0.39073 2.18130   1
  -2  -4   7 1.98432 2.35634   3
   2  -4  -7 4.72994 2.67811   2
  -2  -4   7 -1.3253 7.09261   1
   2  -4  -7 2.42707 2.92614   2
   2  -4  -7 3.76137 2.25899   1
   2   4  -7 6.44042 3.32238   2
   2   4  -7 3.08271 2.40379   3
   2   4  -7 8.30853 6.49170   1
   1  -4  -7 10.5960 3.43844   2
   1  -4  -7 7.91188 3.23270   1
   1  -4  -7 16.2162 3.48344   1
   1  -4  -7 7.07507 2.85562   2
  -1  -4   7 10.7618 2.43098   3
  -1  -4   7 15.1960 8.06569   1
   1   4  -7 10.2214 3.54959   2
   1   4  -7 11.1984 2.53378   3
   1   4  -7 24.8406 7.33246   1
   0  -4  -7 45.2473 6.04580   1
   0  -4   7 51.8248 10.4613   1
   0  -4  -7 44.4858 6.07772   1
   0  -4  -7 41.9494 4.47171   2
   0  -4  -7 40.2867 4.58122   2
   0   4  -7 36.7557 3.59466   3
   0   4  -7 28.8481 4.38877   2
   0   4  -7 35.4070 8.20643   1
   1  -4   7 176.621 15.9126   1
  -1  -4  -7 171.354 9.50151   2
  -1  -4  -7 150.807 11.1675   2
  -1  -4  -7 160.209 10.5633   1
  -1   4  -7 167.473 9.73796   2
  -1   4  -7 172.270 6.98118   3
  -1   4  -7 160.365 14.0785   1
  -2  -4  -7 51.2726 6.98180   1
   2  -4   7 51.7624 9.36067   1
  -2  -4  -7 45.5716 4.96317   2
  -2   4  -7 65.5297 6.07796   2
  -2   4  -7 51.3127 8.94983   1
  -3  -4  -7 427.163 18.4340   2
  -3  -4  -7 439.681 21.4979   1
   3  -4   7 459.402 25.4441   1
  -3   4  -7 447.272 18.5382   2
  -3   4  -7 426.042 23.9743   1
  -3   4  -7 415.063 23.7963   1
  -4  -4  -7 74.8603 9.39963   1
   4  -4   7 92.2973 12.2260   1
  -4  -4  -7 81.3778 7.43532   2
  -4   4  -7 78.2259 10.3237   1
  -4   4  -7 103.668 7.60060   2
  -4   4  -7 81.8527 10.8725   1
  -5  -4  -7 11.1531 3.99818   2
   5  -4   7 11.9424 6.60175   1
  -5  -4  -7 2.48946 5.15670   1
  -5   4  -7 5.00211 3.32872   2
  -5   4  -7 5.70520 6.02080   1
  -5   4  -7 6.77951 6.19451   1
  -6  -4  -7 78.4709 9.93786   1
  -6  -4  -7 68.0115 6.95547   2
  -6   4  -7 54.9702 9.11519   1
  -6   4  -7 58.9247 6.66923   2
  -6   4  -7 72.7598 10.1743   1
  -7  -4  -7 7.52323 6.17040   1
  -7  -4  -7 2.33900 4.04905   2
  -7   4  -7 3.12824 3.71457   2
  -7   4  -7 5.25970 5.51427   1
  -8  -4  -7 -1.5552 6.09776   1
  -8  -4  -7 0.61429 3.85345   2
  -8   4  -7 4.43569 3.80577   2
  -8   4  -7 2.36978 5.53255   1
  -9  -4  -7 28.8485 8.83419   1
  -9   4  -7 29.7902 9.56672   1
  -9   4  -7 23.2958 7.63419   1
  -9   4  -7 43.7460 5.21319   2
 -10  -4  -7 6.87197 4.27658   2
 -10  -4  -7 8.64948 11.9811   1
 -10   4  -7 1.58194 3.42863   2
 -10   4  -7 13.7384 11.4138   1
 -10   4  -7 11.3327 11.6217   1
 -11  -4  -7 15.3423 8.47323   1
 -11  -4  -7 -1.1988 4.06822   2
 -11   4  -7 4.27240 5.81683   1
 -11   4  -7 -1.8129 3.20156   2
 -12  -4  -7 31.7179 5.35236   2
 -12  -4  -7 23.6788 9.96376   1
 -12   4  -7 37.1222 8.68800   1
 -12   4  -7 10.7918 9.32994   1
 -12   4  -7 41.5578 5.05288   2
 -13  -4  -7 4.40750 4.29631   2
 -13   4  -7 -0.6023 3.34719   2
 -13   4  -7 -6.6927 7.89438   1
 -14  -4  -7 -2.3724 4.26157   2
 -14   4  -7 9.24209 8.78204   1
 -14   4  -7 -1.0488 3.27158   2
 -15  -4  -7 9.30482 4.76604   2
 -15   4  -7 10.3568 10.0189   1
 -15   4  -7 12.2840 3.85892   2
 -16  -4  -7 2.89895 5.06149   2
 -16   4  -7 11.4448 12.2526   1
 -16   4  -7 -1.5248 3.24932   2
 -17  -4  -7 18.1888 5.08493   2
 -17   4  -7 20.1661 4.28954   2
  16  -5  -7 9.74964 4.51936   3
  16   5  -7 3.96023 5.56217   3
  15  -5  -7 1.49658 4.12801   3
  15   5  -7 -7.1479 4.79918   3
  14  -5  -7 7.52694 4.48215   3
  14  -5  -7 0.37947 2.43325   2
  14   5  -7 6.43595 4.97504   3
  13  -5  -7 10.7402 2.66983   2
  13  -5  -7 15.4603 4.86126   3
  13   5  -7 2.99879 8.28849   3
  12  -5  -7 61.6070 5.40467   2
 -12  -5   7 55.0838 22.1023   1
  12  -5  -7 59.7202 7.10282   3
  12   5  -7 66.8565 6.91136   2
  12   5  -7 83.3651 9.08515   3
 -11  -5   7 27.8628 11.5162   1
  11  -5  -7 19.4135 3.31362   2
  11  -5  -7 21.8186 3.41038   2
  11  -5  -7 27.0209 5.05408   3
  11   5  -7 21.8801 5.15765   3
  11   5  -7 22.5952 4.48234   2
  10  -5  -7 0.24295 4.05805   3
  10  -5  -7 -1.0792 2.60236   2
 -10  -5   7 8.81765 10.6850   1
  10  -5  -7 3.57518 2.32128   2
  10   5  -7 -0.3120 4.57572   3
  10   5  -7 -3.3471 4.06486   2
  10   5  -7 -6.3918 6.92279   1
   9  -5  -7 3.33195 2.61658   2
   9  -5  -7 0.55934 4.00726   3
  -9  -5   7 -0.6004 8.90473   1
   9  -5  -7 -1.1540 2.94093   2
   9   5  -7 -13.623 5.96822   1
   9   5  -7 2.43749 3.80310   3
   9   5  -7 -1.5482 3.60517   2
   8  -5  -7 26.6310 4.07732   2
   8  -5  -7 25.2895 4.98475   3
  -8  -5   7 10.7257 15.0948   1
   8   5  -7 17.1721 4.32457   2
   8   5  -7 30.5755 4.84613   3
   8   5  -7 18.8353 7.37075   1
   7  -5  -7 -0.4884 3.23484   2
   7  -5  -7 1.03101 3.90513   3
   7   5  -7 10.2148 6.88946   1
   7   5  -7 4.55095 3.76204   3
   7   5  -7 2.20436 4.32221   2
  -6  -5   7 7.76078 9.52481   1
   6  -5  -7 2.42533 3.33427   2
   6   5  -7 0.79552 3.25743   3
   6   5  -7 4.51982 4.23394   2
   6   5  -7 -0.0299 7.38514   1
   5  -5  -7 6.93552 3.45168   2
  -5  -5   7 11.4166 7.76982   1
   5   5  -7 8.52160 4.13482   2
   5   5  -7 9.05984 3.48942   3
  -4  -5   7 1.86160 2.68315   3
   4  -5  -7 5.92984 3.99253   2
  -4  -5   7 -13.125 7.07350   1
   4   5  -7 4.45585 4.55406   3
   4   5  -7 3.92051 3.83530   2
  -3  -5   7 24.9868 9.23011   1
   3  -5  -7 21.3394 4.18830   2
   3   5  -7 27.1605 10.3380   1
   3   5  -7 22.3847 4.48693   2
  -2  -5   7 23.0361 9.22955   1
  -2  -5   7 19.9652 2.99765   3
   2  -5  -7 17.3157 4.08513   2
   2   5  -7 21.9140 3.27205   3
   2   5  -7 11.5821 7.59716   1
   2   5  -7 23.2616 4.97107   2
  -1  -5   7 22.7030 9.00877   1
   1  -5  -7 40.9641 5.14905   2
  -1  -5   7 38.4200 3.77565   3
   1   5  -7 36.6728 4.17665   3
   1   5  -7 41.2263 6.39925   2
   1   5  -7 40.5856 9.56272   1
   0  -5  -7 0.49767 3.79579   2
   0  -5   7 -0.8660 2.65757   3
   0  -5   7 -0.2904 6.79969   1
   0  -5  -7 3.28107 2.38143   1
   0   5  -7 8.95630 6.67740   1
   0   5  -7 -3.0027 3.78666   2
   1  -5   7 52.3544 12.2961   1
  -1  -5  -7 23.7257 4.32963   1
  -1  -5  -7 23.3391 7.43389   2
  -1  -5  -7 21.6762 4.21264   1
  -1   5  -7 11.6403 5.00732   2
  -1   5  -7 11.9137 6.78746   1
   2  -5   7 2.71283 12.1827   1
  -2  -5  -7 2.87267 3.68265   1
  -2  -5  -7 -7.1570 5.81673   2
  -2   5  -7 -1.0887 4.67912   2
  -2   5  -7 -8.1010 5.48653   1
   3  -5   7 14.0217 12.1361   1
  -3  -5  -7 19.0983 4.98213   2
  -3  -5  -7 11.4021 8.74533   1
  -3   5  -7 17.7035 6.77825   1
  -3   5  -7 25.0229 5.09590   2
  -3   5  -7 26.1581 8.31654   1
  -4  -5  -7 -0.8460 4.06796   2
  -4  -5  -7 -0.3011 4.66813   1
   4  -5   7 1.34892 6.96056   1
  -4   5  -7 3.19395 5.80679   1
  -4   5  -7 4.79236 4.02062   2
  -4   5  -7 -4.2660 5.24723   1
  -5  -5  -7 -1.8326 4.10744   2
  -5  -5  -7 7.49381 5.72636   1
  -5   5  -7 -2.8194 3.98498   2
  -5   5  -7 -3.6194 5.51564   1
  -5   5  -7 0.80632 5.65836   1
  -6  -5  -7 -7.0923 5.74328   1
  -6  -5  -7 -1.9212 4.01902   2
  -6   5  -7 4.38487 5.38220   1
  -6   5  -7 2.60587 4.17401   2
  -6   5  -7 3.86118 6.10240   1
  -7  -5  -7 -4.8929 4.31977   2
  -7   5  -7 -8.1571 6.41979   1
  -7   5  -7 -3.1279 3.77416   2
  -7   5  -7 -5.8084 7.44084   1
  -8  -5  -7 1.02125 4.18390   2
  -8   5  -7 -2.3552 3.88350   2
  -8   5  -7 0.15287 6.56749   1
  -9  -5  -7 -1.2143 4.29320   2
  -9   5  -7 -0.6407 6.89227   1
  -9   5  -7 1.91874 4.00769   2
 -10  -5  -7 27.9519 6.08749   2
 -10   5  -7 19.9294 4.22925   2
 -10   5  -7 17.9924 8.11858   1
 -11  -5  -7 6.30534 5.40654   2
 -11   5  -7 1.57490 3.76780   2
 -11   5  -7 -0.2396 8.46258   1
 -12  -5  -7 12.8489 5.83463   2
 -12   5  -7 7.38348 3.79353   2
 -13  -5  -7 17.6858 6.21629   2
 -13   5  -7 30.3352 4.87534   2
 -13   5  -7 17.6847 10.7713   1
 -14  -5  -7 8.32204 10.5791   2
 -14   5  -7 10.9793 3.92823   2
  11  -6  -7 1.48777 3.88340   3
  11  -6  -7 3.43635 3.54387   2
  11   6  -7 1.80413 4.67739   3
  10  -6  -7 0.12039 3.12817   2
  10  -6  -7 6.79648 4.32803   3
   9  -6  -7 14.4483 4.72783   3
   9  -6  -7 19.5448 4.28310   2
   9   6  -7 21.9405 4.80058   3
   9   6  -7 14.9809 5.75675   2
   8  -6  -7 5.36944 4.07572   2
   8  -6  -7 1.76696 4.55535   3
   8   6  -7 4.82487 4.19048   3
   8   6  -7 6.16079 5.45038   2
   7  -6  -7 3.36892 3.96988   2
   7  -6  -7 1.29492 4.36109   3
   7   6  -7 0.04943 3.58447   3
   7   6  -7 1.24045 4.92590   2
   6  -6  -7 9.41522 4.49483   3
   6  -6  -7 6.42275 3.90659   2
   6   6  -7 10.9526 3.94000   3
   6   6  -7 6.01372 5.13365   2
   5  -6  -7 -0.3021 3.82083   2
   5   6  -7 -5.3105 4.83874   2
   5   6  -7 -2.8866 3.28238   3
   4  -6  -7 1.15995 4.04228   2
   4   6  -7 2.49159 3.29997   3
   4   6  -7 -4.5375 4.55004   2
   3  -6  -7 -3.4867 4.40824   2
   3   6  -7 -1.1914 3.97835   2
   2  -6  -7 4.57533 4.54491   2
   2   6  -7 9.81786 4.52371   2
   2   6  -7 14.3214 11.1420   1
   1  -6  -7 14.9308 4.78168   2
   1   6  -7 15.7030 5.45758   2
   0  -6  -7 1.36804 4.47210   2
   0   6  -7 15.1699 11.0920   1
   0   6  -7 6.84719 4.23997   2
  -1  -6  -7 -2.6046 4.39793   2
  -1   6  -7 -3.0642 4.60161   2
  -1   6  -7 -3.5337 6.61495   1
  -2  -6  -7 -5.2594 4.87503   2
  -2   6  -7 3.54175 6.64117   1
  -2   6  -7 0.93265 3.85994   2
  -3  -6  -7 5.04765 4.99712   2
  -3   6  -7 1.60943 6.33438   1
  -3   6  -7 1.93781 4.33479   2
  -4  -6  -7 9.24128 4.82132   2
  -4   6  -7 1.79451 4.79369   2
  -4   6  -7 -10.119 6.12162   1
  -5  -6  -7 8.28028 5.64198   2
  -5   6  -7 -3.6404 6.29879   1
  -5   6  -7 5.69433 4.72135   2
  -6  -6  -7 0.62993 4.77512   2
  -6   6  -7 9.93005 4.66936   2
  -6   6  -7 12.4842 6.98504   1
  -7  -6  -7 16.1553 8.53734   2
  -7   6  -7 5.98549 4.64307   2
  -8  -6  -7 3.24109 5.35731   2
  -8   6  -7 7.95874 4.73054   2
  -9  -6  -7 0.98725 5.06490   2
  -9   6  -7 -5.6873 3.68990   2
  24   0  -8 7.32102 6.38975   3
  23   0  -8 45.7781 8.27211   3
  23   0  -8 19.4990 11.3628   1
 -23   0   8 46.4260 17.6281   1
  22   0  -8 13.4694 9.36165   1
  22   0  -8 13.2662 5.98941   3
 -22   0   8 10.9314 12.4818   1
  21   0  -8 7.59132 6.99346   1
  21   0  -8 -0.4385 7.65796   3
  20   0  -8 10.8792 6.30892   3
  20   0  -8 4.40141 6.99831   1
 -20   0   8 -5.9643 9.00772   1
  19   0  -8 15.3484 5.52547   3
  19   0  -8 15.1208 7.87032   1
 -19   0   8 22.0576 10.0004   1
  18   0  -8 3.58101 4.91372   3
 -18   0   8 5.03678 8.53033   1
  18   0  -8 4.59742 6.64457   1
 -17   0   8 27.4871 9.99147   1
  17   0  -8 33.0392 5.81406   3
  17   0  -8 16.5879 8.28637   1
 -16   0   8 64.7905 11.0372   1
  16   0  -8 63.1988 11.4112   1
  16   0  -8 82.0130 8.86090   3
 -15   0   8 20.5359 7.90632   1
  15   0  -8 25.5653 5.69274   3
  15   0  -8 24.3489 9.10735   1
 -15   0   8 18.5009 1.63579   2
  14   0  -8 41.5695 5.78295   3
 -14   0   8 32.5002 9.13116   1
 -14   0   8 38.1837 2.82346   2
  14   0  -8 32.3463 8.55677   1
  14   0  -8 36.0871 2.69227   2
 -13   0   8 213.740 18.2332   1
  13   0  -8 240.792 17.1505   1
  13   0  -8 268.968 12.9455   3
 -13   0   8 270.607 9.76191   2
  13   0  -8 225.782 9.63634   2
  12   0  -8 923.311 42.5244   1
 -12   0   8 1013.86 35.0003   2
  12   0  -8 938.963 34.9867   2
 -12   0   8 946.061 43.4019   1
  12   0  -8 977.020 36.9895   3
  11   0  -8 328.844 13.2010   2
 -11   0   8 302.014 20.7010   1
  11   0  -8 376.594 15.5612   3
 -11   0   8 365.634 13.2203   2
  11   0  -8 312.843 19.8183   1
 -10   0   8 139.453 13.8640   1
 -10   0   8 132.832 8.34835   3
  10   0  -8 136.712 6.31446   2
  10   0  -8 207.767 15.1106   3
 -10   0   8 132.676 6.32221   2
  10   0  -8 112.771 12.5977   1
  -9   0   8 771.071 29.6291   3
   9   0  -8 756.433 34.6902   1
   9   0  -8 792.818 28.4319   2
   9   0  -8 755.386 29.8225   3
  -9   0   8 754.786 34.9918   1
  -9   0   8 795.806 28.4152   2
  -8   0   8 714.371 32.6448   1
   8   0  -8 691.168 32.4630   1
   8   0  -8 715.289 27.7077   3
   8   0  -8 711.931 26.4496   2
  -8   0   8 710.470 27.5259   3
  -8   0   8 745.749 26.4438   2
   7   0  -8 554.303 21.8308   3
  -7   0   8 563.476 20.9124   2
  -7   0   8 545.787 26.5918   1
   7   0  -8 569.234 20.9729   2
   7   0  -8 561.358 26.6944   1
  -6   0   8 111.623 9.90018   1
  -6   0   8 88.6015 5.05661   2
   6   0  -8 91.7948 9.49832   1
   6   0  -8 93.2207 4.99274   2
   6   0  -8 97.6919 6.23247   3
  -5   0   8 2740.94 101.905   1
   5   0  -8 2648.76 97.2657   3
   5   0  -8 2637.27 101.841   1
  -5   0   8 2747.69 96.7312   2
  -4   0   8 287.143 16.1578   1
   4   0  -8 285.083 10.9703   2
   4   0  -8 263.423 11.5222   3
  -4   0   8 247.534 11.2785   2
   4   0  -8 269.392 15.5302   1
   3   0  -8 142.426 10.8538   1
  -3   0   8 150.333 11.3543   1
   3   0  -8 147.521 6.85379   2
   3   0  -8 147.775 7.35557   3
   2   0  -8 114.425 6.01601   2
   2   0  -8 127.113 10.0125   1
  -2   0   8 115.058 5.83851   2
   2   0  -8 123.409 6.43094   3
  -2   0   8 112.073 9.52917   1
   1   0  -8 537.459 20.6709   3
   1   0  -8 521.020 24.9050   1
  -1   0   8 565.027 25.0646   1
  -1   0   8 537.762 20.4259   2
   0   0   8 904.901 37.2486   1
   0   0  -8 934.442 32.9480   2
   0   0   8 848.706 32.5728   2
   0   0  -8 843.897 37.1989   1
   1   0   8 357.712 14.2431   2
  -1   0  -8 384.048 19.1680   1
  -1   0  -8 348.830 14.2792   2
   2   0   8 1062.79 39.0591   2
  -2   0  -8 1062.54 39.7501   2
  -2   0  -8 1065.51 44.1712   1
  -3   0  -8 143.175 7.79666   2
  -3   0  -8 161.527 11.9150   1
   3   0   8 159.805 7.29681   2
  -3   0  -8 140.610 14.3337   1
  -4   0  -8 1684.64 62.8856   3
  -4   0  -8 1786.29 63.0266   2
  -4   0  -8 1704.93 68.6054   1
  -4   0  -8 1774.89 69.1104   1
   4   0   8 1720.91 62.9430   2
  -5   0  -8 1.56585 4.88200   1
   5   0   8 4.42652 2.14555   2
  -5   0  -8 0.54828 2.23181   2
  -5   0  -8 0.42123 2.11431   3
  -6   0  -8 151.283 12.5746   1
  -6   0  -8 143.785 7.27935   3
  -6   0  -8 152.294 12.3572   1
   6   0   8 154.606 7.40653   2
  -6   0  -8 155.702 7.63820   2
  -7   0  -8 537.386 26.3420   1
  -7   0  -8 497.902 25.7326   1
   7   0   8 496.475 19.8527   2
  -7   0  -8 515.536 19.8600   3
  -7   0  -8 524.490 20.0236   2
  -8   0  -8 23.1970 7.20624   1
   8   0   8 23.7040 2.90497   2
  -8   0  -8 21.6281 6.84731   1
  -8   0  -8 24.1221 3.22770   2
  -8   0  -8 27.6072 3.26012   3
  -9   0  -8 121.727 12.2374   1
   9   0   8 132.994 6.88555   2
  -9   0  -8 132.813 6.90944   3
  -9   0  -8 118.758 7.14167   2
  -9   0  -8 126.158 13.0505   1
 -10   0  -8 1.30204 2.63623   2
 -10   0  -8 3.33733 2.69278   3
  10   0   8 3.15903 2.51573   2
 -10   0  -8 5.30191 6.05070   1
 -10   0  -8 1.87073 6.63701   1
 -11   0  -8 1365.07 60.4458   1
 -11   0  -8 1440.00 53.0355   2
 -11   0  -8 1558.05 62.6557   1
  11   0   8 1431.00 53.0168   2
 -11   0  -8 1433.73 53.0782   3
 -12   0  -8 102.865 6.66083   2
 -12   0  -8 148.073 14.4065   1
  12   0   8 109.128 9.20798   2
 -12   0  -8 100.891 9.63140   3
 -12   0  -8 95.8036 13.2659   1
 -13   0  -8 56.0146 5.66254   3
 -13   0  -8 61.7907 10.1426   1
  13   0   8 62.1413 5.06815   2
 -13   0  -8 61.8842 11.0217   1
 -13   0  -8 57.9572 5.56266   2
 -14   0  -8 22.2446 4.06031   3
 -14   0  -8 12.1588 3.04282   2
 -14   0  -8 12.0565 8.78894   1
 -14   0  -8 26.2169 8.77105   1
 -15   0  -8 84.2189 13.3505   1
 -15   0  -8 86.2885 6.38324   2
 -16   0  -8 -0.9289 7.50972   1
 -16   0  -8 -2.6485 2.68085   2
 -16   0  -8 6.00093 7.81307   1
 -17   0  -8 100.972 6.94602   2
 -17   0  -8 107.061 16.4194   1
 -17   0  -8 97.1552 14.2702   1
 -18   0  -8 3.44723 2.95603   2
 -18   0  -8 5.65914 8.66986   1
 -18   0  -8 -2.2948 15.5599   1
 -19   0  -8 -0.5766 2.91477   2
 -19   0  -8 -8.2096 11.3216   1
 -19   0  -8 0.02941 8.56925   1
 -20   0  -8 61.2667 16.1259   1
 -20   0  -8 80.9080 15.6860   1
 -20   0  -8 92.6277 6.78151   2
 -21   0  -8 56.1224 19.6354   1
 -21   0  -8 86.6827 9.22338   2
  24  -1  -8 4.75417 6.40974   3
  24   1  -8 -1.1064 6.51521   3
  23  -1  -8 -7.7246 5.48145   3
 -23  -1   8 -5.1194 24.7751   1
  23   1  -8 -4.3488 5.83643   3
  23   1  -8 -7.2636 9.82540   1
  22  -1  -8 2.24464 5.55964   3
  22  -1  -8 -6.8180 7.81890   1
 -22  -1   8 -13.727 13.3776   1
  22   1  -8 2.89706 5.84429   3
  22   1  -8 -9.2689 12.9893   1
 -22   1   8 16.6255 15.2723   1
 -21  -1   8 9.89957 11.5584   1
  21  -1  -8 6.36513 7.39595   1
  21  -1  -8 5.63057 5.47685   3
  21   1  -8 18.9351 9.36442   1
  21   1  -8 9.22818 6.54581   3
  20  -1  -8 -3.0627 5.92322   1
 -20  -1   8 -0.6565 9.50739   1
  20  -1  -8 -4.1478 4.76250   3
  20   1  -8 15.8791 8.83316   1
  20   1  -8 0.38097 5.50425   3
 -19  -1   8 63.6415 14.1488   1
  19  -1  -8 77.3063 9.43449   3
  19  -1  -8 62.6389 10.8566   1
 -19  -1   8 93.7870 4.08880   2
  19   1  -8 93.5588 10.2202   3
  19   1  -8 60.0590 12.0928   1
 -18  -1   8 0.13112 1.79449   2
  18  -1  -8 2.62646 4.75560   3
 -18  -1   8 4.65023 9.77343   1
  18  -1  -8 -2.3424 5.89438   1
  18   1  -8 3.51998 5.11371   3
  18   1  -8 1.46599 6.82917   1
  17  -1  -8 49.1010 9.47387   1
  17  -1  -8 55.3973 6.56813   3
 -17  -1   8 43.4064 11.4562   1
 -17  -1   8 47.6535 3.94659   2
 -17   1   8 38.8658 11.5281   1
  17   1  -8 54.6398 7.70665   3
  17   1  -8 32.1030 9.28230   1
 -16  -1   8 12.3106 2.38514   2
 -16  -1   8 -7.2343 9.10664   1
  16  -1  -8 1.31056 4.84933   3
  16  -1  -8 8.11114 6.32444   1
  16   1  -8 10.0677 5.15162   3
 -16   1   8 8.23238 7.07735   1
  16   1  -8 2.08512 6.32823   1
  15  -1  -8 101.242 8.87524   3
 -15  -1   8 71.2418 13.3860   1
 -15  -1   8 84.8711 5.37712   2
  15  -1  -8 63.5674 10.2454   1
  15   1  -8 107.937 12.9733   1
 -15   1   8 82.4488 11.2308   1
  15   1  -8 93.4383 5.02790   2
  15   1  -8 99.0900 9.33180   3
  14  -1  -8 31.6421 5.37453   3
 -14  -1   8 55.2508 11.4707   1
 -14  -1   8 31.8564 4.36663   2
  14  -1  -8 22.5272 7.02500   1
  14   1  -8 29.6653 5.38870   3
  14   1  -8 29.6925 8.36933   1
 -14   1   8 42.7352 8.43126   1
  14   1  -8 32.4186 3.55703   2
  13  -1  -8 81.5697 10.7934   1
  13  -1  -8 75.2064 3.17813   2
 -13  -1   8 67.7678 12.3670   1
  13  -1  -8 73.9656 7.49903   3
 -13   1   8 60.3324 9.52066   1
  13   1  -8 74.4445 11.5462   1
  13   1  -8 77.2028 8.13682   3
  13   1  -8 69.6074 4.64742   2
 -12  -1   8 388.217 16.5726   2
  12  -1  -8 462.491 18.0247   3
  12  -1  -8 362.260 22.0697   1
 -12  -1   8 408.958 26.0151   1
  12  -1  -8 405.572 15.1415   2
  12   1  -8 385.863 16.0095   2
  12   1  -8 390.495 23.7211   1
 -12   1   8 419.599 22.4529   1
  12   1  -8 450.267 18.1814   3
  11  -1  -8 419.381 17.9453   3
 -11  -1   8 425.007 34.1538   1
  11  -1  -8 422.973 22.5755   1
  11  -1  -8 408.028 15.7142   2
 -11  -1   8 413.454 16.4265   2
  11   1  -8 412.460 16.5634   2
  11   1  -8 431.625 18.1486   3
  11   1  -8 439.114 24.2887   1
 -11   1   8 435.451 22.3562   1
 -10  -1   8 273.903 13.1566   3
  10  -1  -8 274.075 14.6692   3
  10  -1  -8 320.117 11.6271   2
 -10  -1   8 309.910 12.1773   2
  10  -1  -8 283.953 17.4732   1
  10   1  -8 322.937 14.9830   3
 -10   1   8 317.721 17.1549   1
  10   1  -8 291.997 19.1688   1
  10   1  -8 295.175 13.0725   2
   9  -1  -8 25.9316 2.37243   2
   9  -1  -8 24.6964 6.24883   1
   9  -1  -8 22.4124 4.20890   3
  -9  -1   8 31.0115 9.38250   1
  -9  -1   8 21.7533 3.72512   3
  -9  -1   8 24.2895 2.69672   2
   9   1  -8 25.6651 6.94878   1
  -9   1   8 27.4896 6.16602   1
  -9   1   8 25.4905 2.80256   2
   9   1  -8 30.1709 4.56576   3
  -8  -1   8 21.8055 2.55573   2
  -8  -1   8 29.7181 8.42460   1
   8  -1  -8 35.6073 6.47024   1
   8  -1  -8 21.3826 4.32425   3
  -8  -1   8 19.5567 3.90045   3
   8  -1  -8 25.9304 2.37461   2
   8   1  -8 27.1663 4.55111   3
  -8   1   8 19.0540 5.23327   1
   8   1  -8 29.7300 7.28006   1
  -8   1   8 26.1228 2.89895   2
  -7  -1   8 34.6842 3.72483   2
   7  -1  -8 26.2388 5.90171   1
  -7  -1   8 39.4422 4.86526   3
   7  -1  -8 21.9957 4.30551   3
   7  -1  -8 35.2208 3.34908   2
  -7  -1   8 23.8126 7.33936   1
  -7   1   8 27.8872 5.69608   1
   7   1  -8 26.6300 3.73659   3
  -7   1   8 34.9105 3.13369   2
   7   1  -8 29.8168 6.97169   1
   6  -1  -8 30.9642 5.85754   1
  -6  -1   8 28.5100 3.45762   3
   6  -1  -8 27.4899 3.17690   2
  -6  -1   8 33.9982 3.64591   2
  -6  -1   8 23.8921 7.05974   1
   6  -1  -8 24.0100 3.62939   3
   6   1  -8 22.8598 3.43082   3
  -6   1   8 29.8888 3.06003   2
  -6   1   8 31.0866 5.53837   1
   6   1  -8 38.1993 7.61922   1
  -5  -1   8 2.98327 2.64455   3
  -5  -1   8 4.34934 2.08335   2
   5  -1  -8 5.59140 2.85579   3
  -5  -1   8 0.20856 4.83586   1
   5  -1  -8 2.42487 4.02838   1
   5  -1  -8 3.62673 1.75864   2
   5   1  -8 6.77983 2.68609   3
   5   1  -8 1.80918 2.10438   2
  -5   1   8 3.35725 1.78806   2
   5   1  -8 1.53927 5.48676   1
  -5   1   8 2.87784 3.87128   1
   4  -1  -8 1.59901 3.64630   1
  -4  -1   8 -1.6006 4.95183   1
  -4  -1   8 -0.2496 2.02304   2
   4  -1  -8 0.83837 1.82925   2
   4  -1  -8 0.32306 2.72946   3
  -4   1   8 -2.2022 3.31742   1
   4   1  -8 2.70155 2.13141   2
   4   1  -8 -5.8438 4.70158   1
   4   1  -8 3.35214 2.70528   3
  -4   1   8 2.59592 1.90659   2
   3  -1  -8 52.4345 7.24690   1
  -3  -1   8 67.5202 4.49151   2
   3  -1  -8 55.3579 4.36543   2
  -3  -1   8 86.1559 11.7184   1
  -3   1   8 65.1804 4.45388   2
   3   1  -8 60.0172 8.70226   1
   3   1  -8 59.8475 4.60513   2
   3   1  -8 64.3514 4.81110   3
  -3   1   8 62.3540 7.21885   1
   2  -1  -8 1175.69 46.2291   1
  -2  -1   8 1142.11 42.1680   2
  -2  -1   8 1192.35 55.6061   1
   2   1  -8 1143.66 47.7717   1
  -2   1   8 1122.42 42.0416   2
   2   1  -8 1155.02 42.1927   3
   2   1  -8 1144.27 42.2504   2
  -1  -1   8 17.2484 2.44529   2
   1  -1  -8 21.0235 3.13876   2
  -1  -1   8 17.1072 6.31602   1
   1  -1  -8 10.8888 4.10296   1
  -1   1   8 20.8226 2.58785   2
   1   1  -8 12.0045 2.44241   2
   1   1  -8 16.3859 2.48870   3
   1   1  -8 15.9721 5.56157   1
   0  -1   8 0.92800 4.62076   1
   0  -1  -8 4.57030 3.71058   1
   0  -1   8 2.92093 1.97975   2
   0  -1  -8 2.91759 2.38112   2
   0   1  -8 -3.7317 4.56580   1
   0   1   8 -0.4094 1.66498   2
   0   1  -8 0.14011 1.84819   3
  -1  -1  -8 18.7050 5.33440   1
   1  -1   8 23.7665 2.88950   2
   1  -1   8 15.3550 5.62524   1
  -1   1  -8 21.8952 3.29694   2
  -1   1  -8 19.1486 2.46347   3
   1   1   8 24.2296 2.80333   2
  -1   1  -8 14.3808 5.59742   1
   2  -1   8 396.024 15.3385   2
  -2  -1  -8 386.481 19.7728   1
  -2  -1  -8 363.782 19.4991   1
  -2  -1  -8 390.521 15.6855   3
   2  -1   8 405.920 20.6829   1
  -2  -1  -8 379.865 15.4873   2
  -2   1  -8 390.925 20.6664   1
  -2   1  -8 394.241 14.9784   3
   2   1   8 384.727 15.2884   2
  -2   1  -8 392.784 15.4622   2
  -3  -1  -8 63.5560 7.85670   1
  -3  -1  -8 56.5957 7.65956   1
   3  -1   8 41.6955 4.20326   2
  -3  -1  -8 40.8069 4.58142   2
  -3  -1  -8 51.0772 4.67760   3
  -3   1  -8 48.8322 4.60076   2
  -3   1  -8 44.6889 7.60600   1
  -3   1  -8 48.4957 3.72188   3
   3   1   8 43.6455 4.11231   2
  -4  -1  -8 753.991 28.5041   3
  -4  -1  -8 738.584 28.2152   2
  -4  -1  -8 750.506 33.2313   1
  -4  -1  -8 741.090 33.0148   1
   4  -1   8 727.259 28.1190   2
  -4   1  -8 774.035 28.2816   2
  -4   1  -8 745.106 34.2960   1
  -4   1  -8 769.697 34.1399   1
   4   1   8 755.468 28.1915   2
  -5  -1  -8 371.245 15.5393   3
  -5  -1  -8 387.995 15.3913   2
  -5  -1  -8 381.068 20.1460   1
  -5  -1  -8 370.795 20.2235   1
   5  -1   8 376.365 15.1504   2
   5   1   8 379.200 15.2215   2
  -5   1  -8 398.281 21.3701   1
  -5   1  -8 361.847 20.7112   1
  -5   1  -8 387.017 15.3513   2
  -6  -1  -8 418.607 22.0338   1
  -6  -1  -8 434.201 22.6265   1
   6  -1   8 414.239 16.8312   2
  -6  -1  -8 430.415 17.1345   2
  -6  -1  -8 421.611 17.3080   3
   6   1   8 427.422 16.9612   2
  -6   1  -8 437.959 17.0503   2
  -6   1  -8 433.930 23.2072   1
  -6   1  -8 431.336 23.4239   1
  -7  -1  -8 7.27267 2.85930   3
  -7  -1  -8 3.13836 3.06700   2
   7  -1   8 2.53645 2.28480   2
  -7  -1  -8 0.17240 5.01816   1
  -7  -1  -8 -4.4152 5.19757   1
   7   1   8 2.63154 2.29323   2
  -7   1  -8 1.58663 5.49450   1
  -7   1  -8 5.84295 2.21015   3
  -7   1  -8 4.43228 2.63618   2
  -7   1  -8 3.63566 6.53362   1
  -8  -1  -8 47.5569 5.40793   2
  -8  -1  -8 53.5657 9.51488   1
  -8  -1  -8 45.6293 5.51368   3
   8  -1   8 50.9486 4.70830   2
  -8   1  -8 58.5440 3.99340   3
  -8   1  -8 54.2029 9.06909   1
  -8   1  -8 59.7126 5.14680   2
  -8   1  -8 53.2419 9.76304   1
   9  -1   8 27.5331 3.24569   2
  -9  -1  -8 34.6977 4.23801   2
  -9  -1  -8 33.6660 4.23755   3
  -9  -1  -8 18.9810 7.62061   1
  -9   1  -8 29.8890 7.76031   1
  -9   1  -8 22.9286 3.33004   2
  -9   1  -8 24.4546 8.33220   1
  -9   1  -8 30.9426 3.44986   3
  10  -1   8 721.188 27.9799   2
 -10  -1  -8 750.882 28.2641   2
 -10  -1  -8 756.564 36.1785   1
 -10  -1  -8 670.930 28.5214   3
 -10   1  -8 753.563 28.1494   2
 -10   1  -8 815.943 36.9485   1
 -10   1  -8 733.069 35.3898   1
 -10   1  -8 731.421 27.4462   3
 -11  -1  -8 9.82579 3.19785   2
 -11  -1  -8 2.61442 7.37944   1
  11  -1   8 8.65238 2.74829   2
 -11   1  -8 15.5130 7.78104   1
 -11   1  -8 11.8079 2.50563   3
 -11   1  -8 3.89757 6.93576   1
 -11   1  -8 20.9408 3.46473   2
 -12  -1  -8 57.5947 10.5903   1
 -12  -1  -8 53.7498 5.66335   2
  12  -1   8 50.2581 4.92245   2
 -12   1  -8 61.2616 10.8199   1
 -12   1  -8 52.6359 5.36429   2
 -12   1  -8 43.9112 9.78047   1
 -12   1  -8 52.7311 4.28726   3
 -13  -1  -8 2.86724 3.10067   2
  13  -1   8 7.10496 2.95814   2
 -13  -1  -8 -5.3662 12.0242   1
 -13   1  -8 5.29720 2.74546   2
 -13   1  -8 -0.5535 5.80878   1
 -13   1  -8 -0.5229 6.94911   1
 -13   1  -8 2.71945 2.36193   3
  14  -1   8 54.5475 4.89911   2
 -14  -1  -8 70.3215 12.5993   1
 -14  -1  -8 59.8636 6.14045   2
 -14   1  -8 64.1432 5.41508   2
 -14   1  -8 57.1153 4.59850   3
 -14   1  -8 62.9956 11.4455   1
 -14   1  -8 40.0530 9.53277   1
 -15  -1  -8 16.4439 3.63884   2
  15  -1   8 23.5441 3.30573   2
 -15  -1  -8 39.1541 10.5778   1
 -15   1  -8 26.7507 3.80450   2
 -15   1  -8 22.2561 3.16373   3
 -15   1  -8 43.9014 9.81354   1
 -15   1  -8 11.0852 7.93132   1
 -16  -1  -8 189.779 20.1334   1
 -16  -1  -8 142.106 8.63923   2
 -16   1  -8 145.107 16.6842   1
 -16   1  -8 129.305 7.80564   2
 -16   1  -8 129.320 7.04069   3
 -16   1  -8 131.667 16.2538   1
 -17  -1  -8 84.1765 7.02830   2
 -17  -1  -8 82.5160 14.1893   1
 -17   1  -8 76.5995 14.1852   1
 -17   1  -8 79.5590 13.7911   1
 -17   1  -8 91.2617 6.50166   2
 -18  -1  -8 8.19308 10.2287   1
 -18  -1  -8 5.68977 3.41975   2
 -18   1  -8 2.72709 2.95672   2
 -18   1  -8 7.73779 11.2829   1
 -19  -1  -8 36.7246 14.6513   1
 -19  -1  -8 45.0307 6.20926   2
 -19   1  -8 28.0375 12.7994   1
 -19   1  -8 37.5116 4.39773   2
 -19   1  -8 40.3507 12.0030   1
 -20  -1  -8 33.8887 14.6084   1
 -20  -1  -8 16.2847 3.91357   2
 -20   1  -8 17.4140 3.54310   2
 -20   1  -8 8.25841 14.9973   1
 -21  -1  -8 69.0556 6.73046   2
 -21   1  -8 67.9577 5.97437   2
  23  -2  -8 -0.0827 5.55142   3
  23   2  -8 -0.9116 6.57454   3
 -22  -2   8 12.0427 26.3306   1
  22  -2  -8 5.45945 5.60579   3
  22   2  -8 -3.8843 5.66455   3
  22   2  -8 -0.1223 11.0594   1
  21  -2  -8 -6.3125 7.24695   3
  21  -2  -8 -16.078 6.68862   1
 -21  -2   8 4.62860 13.1811   1
 -21   2   8 -0.3093 8.61377   1
  21   2  -8 -1.1607 5.54700   3
  21   2  -8 -4.5821 8.68847   1
  20  -2  -8 -6.3207 4.39098   3
  20  -2  -8 4.82524 6.96987   1
 -20  -2   8 5.81831 11.4795   1
 -20  -2   8 0.31413 2.49667   2
  20   2  -8 6.24972 5.74727   3
  20   2  -8 -0.0423 8.99219   1
 -20   2   8 -4.8250 7.10969   1
  19  -2  -8 6.85575 5.00925   3
 -19  -2   8 -1.6588 2.56220   2
  19  -2  -8 -9.7412 6.15550   1
 -19  -2   8 -6.8849 9.71008   1
 -19   2   8 2.96718 6.80878   1
  19   2  -8 -3.5996 6.17568   3
  19   2  -8 5.78911 7.63483   1
 -18  -2   8 23.5544 11.3660   1
  18  -2  -8 37.8489 8.45374   1
 -18  -2   8 35.7936 3.73349   2
  18  -2  -8 47.2341 7.03323   3
  18   2  -8 44.7460 7.37932   3
 -18   2   8 32.1043 7.98280   1
  18   2  -8 17.7329 9.57125   1
 -17  -2   8 3.23034 10.0923   1
 -17  -2   8 2.29708 2.72903   2
  17  -2  -8 6.56375 5.76757   1
  17  -2  -8 1.58516 4.55308   3
  17   2  -8 5.06139 5.16193   3
 -17   2   8 4.78379 5.76434   1
 -16  -2   8 5.01811 8.64347   1
 -16  -2   8 4.88861 2.75706   2
  16  -2  -8 4.41034 5.76886   1
  16  -2  -8 -1.0251 4.13530   3
  16   2  -8 7.05339 4.98850   3
 -16   2   8 13.8848 5.85154   1
  16   2  -8 3.08574 6.77006   1
 -15  -2   8 0.21444 2.54888   2
  15  -2  -8 -0.5284 4.59675   3
 -15  -2   8 -7.4885 7.50485   1
  15  -2  -8 4.14824 5.28750   1
 -15   2   8 -4.1844 4.76016   1
  15   2  -8 0.94702 6.49086   1
  15   2  -8 4.54567 4.62624   3
  15   2  -8 2.50380 2.28758   2
  14  -2  -8 18.7568 6.14652   1
 -14  -2   8 10.2252 8.72078   1
  14  -2  -8 23.6236 4.83680   3
 -14  -2   8 20.7524 3.21874   2
 -14   2   8 20.3891 5.66911   1
  14   2  -8 20.8852 5.31106   3
  14   2  -8 16.8546 8.03815   1
  14   2  -8 15.5329 2.79807   2
 -13  -2   8 14.5033 8.87113   1
 -13  -2   8 24.3784 3.25399   2
  13  -2  -8 23.4963 6.61022   1
  13  -2  -8 23.6936 5.13609   3
  13   2  -8 22.5615 8.09796   1
  13   2  -8 21.7974 3.13833   2
  13   2  -8 33.7451 5.71505   3
 -13   2   8 15.1965 5.22287   1
 -12  -2   8 2.62180 8.54020   1
  12  -2  -8 0.12476 4.02862   3
  12  -2  -8 6.85933 8.65378   1
 -12  -2   8 7.23809 2.88445   2
  12  -2  -8 5.54332 1.36704   2
  12  -2  -8 1.28322 1.35767   2
  12   2  -8 5.89748 2.72455   2
  12   2  -8 2.67456 4.79561   3
 -12   2   8 -0.2199 3.93012   1
  12   2  -8 -8.7622 5.37210   1
 -11  -2   8 12.3957 8.19712   1
 -11  -2   8 15.5605 3.00309   2
  11  -2  -8 15.2884 1.90959   2
  11  -2  -8 15.8587 1.89931   2
  11  -2  -8 12.4231 4.04542   3
 -11   2   8 19.5156 4.70314   1
  11   2  -8 15.4299 3.23737   2
  11   2  -8 10.5916 4.78046   3
  11   2  -8 15.0963 7.72390   1
  10  -2  -8 4.72779 3.89499   3
  10  -2  -8 2.97056 1.81437   2
 -10  -2   8 5.51405 2.65282   2
 -10  -2   8 14.1965 8.07986   1
  10  -2  -8 1.29030 5.10433   1
 -10   2   8 6.89789 3.89606   1
  10   2  -8 3.08274 3.94021   3
  10   2  -8 7.55371 6.63232   1
  10   2  -8 2.39445 2.75114   2
   9  -2  -8 294.789 11.4580   2
   9  -2  -8 299.244 13.4337   3
  -9  -2   8 274.725 19.9752   1
  -9  -2   8 291.101 13.1574   3
  -9  -2   8 295.310 12.3105   2
   9  -2  -8 262.628 16.2218   1
   9   2  -8 277.736 20.0775   1
   9   2  -8 320.129 14.1830   3
  -9   2   8 287.942 13.8335   1
   9   2  -8 264.088 12.3094   2
  -8  -2   8 256.766 12.0451   3
  -8  -2   8 276.526 18.9786   1
  -8  -2   8 259.438 11.3870   2
   8  -2  -8 255.596 14.9104   1
   8  -2  -8 265.040 10.6699   2
   8  -2  -8 251.346 13.4047   3
   8   2  -8 284.256 19.1528   1
  -8   2   8 257.898 12.5249   1
   8   2  -8 267.959 11.5224   2
   8   2  -8 267.676 12.3551   3
   7  -2  -8 286.638 14.3676   3
   7  -2  -8 294.783 15.7674   1
  -7  -2   8 287.574 12.4162   2
   7  -2  -8 300.643 11.8777   2
  -7  -2   8 297.751 12.9735   3
  -7  -2   8 299.207 20.2878   1
   7   2  -8 291.259 18.8943   1
   7   2  -8 290.525 13.2053   3
   7   2  -8 302.119 12.6096   2
   6  -2  -8 381.584 15.8044   3
   6  -2  -8 357.431 18.0693   1
  -6  -2   8 365.682 15.1488   3
  -6  -2   8 389.560 22.6764   1
  -6  -2   8 364.476 14.8865   2
   6  -2  -8 377.815 14.5407   2
   6   2  -8 351.077 21.0468   1
   6   2  -8 354.512 14.9665   2
   6   2  -8 368.030 15.2986   3
  -5  -2   8 1.55451 2.58996   3
   5  -2  -8 3.13069 3.37785   3
  -5  -2   8 -3.6191 2.41944   2
   5  -2  -8 2.04927 3.80077   1
  -5  -2   8 5.67372 6.20267   1
   5   2  -8 5.34246 5.70426   1
   5   2  -8 4.03206 2.67123   2
   5   2  -8 2.30416 2.98968   3
  -4  -2   8 121.200 12.9310   1
  -4  -2   8 119.091 6.49457   3
  -4  -2   8 120.784 6.62632   2
   4  -2  -8 114.344 11.0126   1
   4  -2  -8 112.376 6.20497   2
   4   2  -8 120.861 6.66921   3
   4   2  -8 126.978 11.8955   1
   4   2  -8 123.624 6.75565   2
  -3  -2   8 81.3380 5.13067   3
   3  -2  -8 84.7184 11.2330   1
  -3  -2   8 84.4426 10.8991   1
   3  -2  -8 78.3494 6.04308   2
  -3  -2   8 82.0068 5.52230   2
   3   2  -8 84.7194 5.58947   2
   3   2  -8 81.7555 9.74096   1
   3   2  -8 83.2060 5.37712   3
  -2  -2   8 14.4601 2.94626   2
   2  -2  -8 4.81900 2.39486   2
  -2  -2   8 7.44022 5.92781   1
   2  -2  -8 6.92194 4.02873   1
   2   2  -8 8.23226 2.58472   3
   2   2  -8 6.49353 5.40627   1
   2   2  -8 14.9413 2.76798   2
  -1  -2   8 393.100 15.5606   2
   1  -2  -8 386.150 15.4324   2
   1  -2  -8 402.096 18.8724   1
  -1  -2   8 374.934 21.3681   1
   1   2  -8 378.264 15.6527   2
   1   2  -8 399.918 21.9158   1
   1   2  -8 374.701 15.0450   3
   0  -2  -8 243.451 14.1223   1
   0  -2   8 258.777 11.0548   2
   0  -2   8 257.642 17.4154   1
   0  -2  -8 258.540 11.0293   2
   0  -2  -8 256.914 14.5151   1
   0   2  -8 267.789 11.2723   2
   0   2  -8 243.786 10.3101   3
   0   2  -8 261.343 16.7271   1
   1  -2   8 57.8230 8.80283   1
   1  -2   8 57.5582 4.94395   2
  -1  -2  -8 65.7533 8.16898   1
  -1  -2  -8 58.6719 7.24116   1
  -1  -2  -8 63.7093 7.67534   3
  -1  -2  -8 52.8073 5.05620   2
  -1   2  -8 51.0341 3.73746   3
  -1   2  -8 67.3078 9.21988   1
  -1   2  -8 54.9793 5.03947   2
  -2  -2  -8 206.433 10.2205   3
  -2  -2  -8 223.233 9.82471   2
  -2  -2  -8 209.493 13.5607   1
   2  -2   8 213.459 9.62477   2
   2  -2   8 210.581 15.1623   1
  -2  -2  -8 199.845 13.0620   1
  -2   2  -8 226.207 9.86473   2
  -2   2  -8 202.880 8.52281   3
  -2   2  -8 211.607 14.9768   1
  -3  -2  -8 190.681 13.1385   1
  -3  -2  -8 195.510 9.72878   3
   3  -2   8 196.872 14.7626   1
  -3  -2  -8 213.755 13.7912   1
  -3  -2  -8 199.004 9.43381   2
   3  -2   8 205.058 9.23703   2
  -3   2  -8 187.285 14.3517   1
  -3   2  -8 215.402 9.56103   2
  -3   2  -8 185.785 7.91634   3
  -4  -2  -8 338.895 18.3242   1
  -4  -2  -8 341.588 18.5261   1
  -4  -2  -8 337.415 14.0635   2
   4  -2   8 331.122 13.8825   2
  -4  -2  -8 303.429 14.2427   3
   4  -2   8 357.912 20.0865   1
  -4   2  -8 333.672 12.5775   3
  -4   2  -8 332.687 12.5401   3
  -4   2  -8 345.802 14.0914   2
  -4   2  -8 335.101 19.7449   1
  -4   2  -8 339.942 20.3106   1
  -5  -2  -8 53.8918 8.34697   1
  -5  -2  -8 42.9402 5.50974   3
  -5  -2  -8 62.7695 5.43351   2
   5  -2   8 49.8831 5.03388   2
  -5   2  -8 52.2195 5.23213   2
  -5   2  -8 34.5423 8.17489   1
  -5   2  -8 43.9476 8.22604   1
  -5   2  -8 50.3214 2.75184   3
  -5   2  -8 52.2108 2.85002   3
  -6  -2  -8 46.6304 8.52487   1
   6  -2   8 52.1967 5.01951   2
  -6  -2  -8 57.0371 5.65826   2
  -6   2  -8 52.3347 5.39444   2
  -6   2  -8 52.2056 2.62859   3
  -6   2  -8 46.2754 8.91942   1
  -6   2  -8 46.7827 9.30166   1
   7  -2   8 53.6463 5.08916   2
  -7  -2  -8 58.4563 5.86177   2
  -7  -2  -8 48.4060 14.5063   1
  -7   2  -8 42.3499 8.83526   1
  -7   2  -8 55.1840 5.56756   2
  -7   2  -8 42.8717 9.68751   1
  -8  -2  -8 44.6257 8.88464   1
  -8  -2  -8 50.5611 4.94296   2
   8  -2   8 53.0557 4.66178   2
  -8   2  -8 72.9419 11.0272   1
  -8   2  -8 48.5145 4.58652   2
  -8   2  -8 35.3916 9.05721   1
  -9  -2  -8 40.9812 8.82199   1
   9  -2   8 53.4583 5.05430   2
  -9  -2  -8 54.0971 6.13163   2
  -9   2  -8 50.9453 16.1609   1
  -9   2  -8 41.7135 4.44645   2
  -9   2  -8 53.1404 10.3758   1
 -10  -2  -8 446.003 17.9854   2
  10  -2   8 385.350 18.0656   2
 -10  -2  -8 443.500 25.8907   1
 -10   2  -8 460.498 25.2077   1
 -10   2  -8 434.347 17.5572   2
 -10   2  -8 425.159 26.0645   1
 -11  -2  -8 68.3724 11.0649   1
  11  -2   8 63.3882 6.79708   2
 -11  -2  -8 64.5300 6.58138   2
 -11   2  -8 58.0965 10.9926   1
 -11   2  -8 51.5836 10.6367   1
 -11   2  -8 53.0805 5.71428   2
  12  -2   8 100.573 6.43472   2
 -12  -2  -8 120.466 15.4495   1
 -12  -2  -8 104.311 7.69797   2
 -12   2  -8 113.223 6.99299   2
 -12   2  -8 131.009 24.2243   1
 -12   2  -8 115.308 13.1734   1
 -13  -2  -8 33.8026 10.0786   1
  13  -2   8 50.5851 4.89100   2
 -13  -2  -8 53.6190 5.45492   2
 -13   2  -8 20.4118 15.3163   1
 -13   2  -8 54.4098 5.42184   2
 -13   2  -8 49.1918 9.67668   1
 -14  -2  -8 15.0499 9.20557   1
  14  -2   8 3.87081 2.61925   2
 -14  -2  -8 1.45081 3.64591   2
 -14   2  -8 12.3302 8.18741   1
 -14   2  -8 15.6631 10.6946   1
 -14   2  -8 3.90724 3.05692   2
 -15  -2  -8 19.0218 9.95977   1
 -15  -2  -8 17.9974 4.11147   2
 -15   2  -8 28.0314 9.45202   1
 -15   2  -8 21.8196 3.59519   2
 -15   2  -8 19.9629 8.92391   1
 -16  -2  -8 192.160 21.8079   1
 -16   2  -8 200.012 9.97995   2
 -16   2  -8 228.257 20.3897   1
 -16   2  -8 164.598 26.9836   1
 -17  -2  -8 51.6006 14.5827   1
 -17  -2  -8 65.6931 7.12433   2
 -17   2  -8 68.7255 6.15437   2
 -17   2  -8 58.5567 13.8211   1
 -17   2  -8 51.6182 11.3580   1
 -18  -2  -8 14.2993 11.8641   1
 -18  -2  -8 14.0080 4.01459   2
 -18   2  -8 -9.2866 11.5131   1
 -18   2  -8 14.7070 3.39321   2
 -19  -2  -8 9.70557 13.3874   1
 -19  -2  -8 -2.5631 3.82738   2
 -19   2  -8 0.77356 2.77608   2
 -19   2  -8 -6.7446 11.3897   1
 -20  -2  -8 2.80472 3.87104   2
 -20   2  -8 5.48446 2.95391   2
 -21  -3   8 32.1614 15.9376   1
  21  -3  -8 8.91856 5.52982   3
  21   3  -8 5.28236 6.08492   3
 -20  -3   8 -16.298 12.4123   1
  20  -3  -8 7.81558 7.57144   1
  20  -3  -8 1.95718 5.12653   3
  20   3  -8 2.15742 5.55760   3
  20   3  -8 -7.5919 8.30395   1
 -19  -3   8 16.3176 11.6581   1
  19  -3  -8 1.55263 4.61928   3
  19  -3  -8 9.92878 6.37038   1
  19   3  -8 -13.149 12.6658   1
  19   3  -8 -2.2429 5.16446   3
 -18  -3   8 -16.477 12.3733   1
  18  -3  -8 7.74835 6.27840   1
  18  -3  -8 6.79909 4.90459   3
  18   3  -8 4.59613 8.70326   1
  18   3  -8 2.41137 5.39296   3
  17  -3  -8 3.41282 4.38947   3
  17  -3  -8 3.22928 5.23052   1
 -17  -3   8 9.28518 11.2142   1
  17   3  -8 -4.5511 6.78496   1
  17   3  -8 4.10720 5.43266   3
 -16  -3   8 3.46986 10.8491   1
  16  -3  -8 -4.0238 4.16771   3
  16  -3  -8 2.06438 5.09771   1
  16   3  -8 6.15831 5.47211   3
  16   3  -8 -1.8401 7.42725   1
 -15  -3   8 8.13580 9.66423   1
  15  -3  -8 2.39392 4.51052   3
  15  -3  -8 -4.5744 4.68750   1
  15   3  -8 -5.3664 6.56481   1
  15   3  -8 -0.0244 2.95014   2
  15   3  -8 -1.7814 4.78637   3
 -14  -3   8 77.8813 7.08730   2
 -14  -3   8 91.9571 17.4927   1
  14  -3  -8 71.8846 9.30221   1
  14  -3  -8 92.2485 8.24667   3
  14   3  -8 104.743 9.08857   3
  14   3  -8 86.8053 13.1301   1
  14   3  -8 78.4746 6.48007   2
 -13  -3   8 20.3070 11.1080   1
  13  -3  -8 19.0694 1.86397   2
  13  -3  -8 19.0423 1.79275   2
  13  -3  -8 25.7408 6.00197   1
 -13  -3   8 14.8590 3.58715   2
  13  -3  -8 17.4067 4.69597   3
  13   3  -8 4.71684 6.86613   1
  13   3  -8 23.1582 3.61673   2
  13   3  -8 16.5885 4.81820   3
 -12  -3   8 88.2653 6.54769   2
  12  -3  -8 75.9660 8.79424   1
 -12  -3   8 54.0529 13.0233   1
  12  -3  -8 70.8012 4.16475   2
  12  -3  -8 78.8522 4.25468   2
  12  -3  -8 67.0302 7.44588   3
  12   3  -8 75.5002 6.27844   2
  12   3  -8 62.9693 11.8459   1
  12   3  -8 85.0838 8.23813   3
  11  -3  -8 23.2081 4.68093   3
 -11  -3   8 27.3128 4.06534   2
 -11  -3   8 14.0282 8.93009   1
  11  -3  -8 25.0417 2.55237   2
  11  -3  -8 19.4319 5.09763   1
  11  -3  -8 22.0029 2.37685   2
  11   3  -8 28.3642 4.13384   2
  11   3  -8 15.6146 4.49652   3
  11   3  -8 18.6730 8.36035   1
  10  -3  -8 36.2871 3.90289   2
  10  -3  -8 35.4123 4.87785   3
  10  -3  -8 35.8411 3.85871   2
  10  -3  -8 40.1255 5.91935   1
 -10  -3   8 35.6091 4.38204   2
 -10  -3   8 27.6484 9.34420   1
  10   3  -8 43.0334 5.36798   3
  10   3  -8 33.8086 4.04139   2
   9  -3  -8 1.52110 2.13122   2
   9  -3  -8 5.40312 3.74564   3
  -9  -3   8 6.25686 3.44814   2
   9  -3  -8 1.98644 1.91415   2
  -9  -3   8 -5.6233 6.90141   1
   9  -3  -8 5.10891 3.71425   1
   9   3  -8 0.00706 2.71201   2
   9   3  -8 1.38810 6.28134   1
   9   3  -8 -0.4492 3.68148   3
  -8  -3   8 16.8510 5.35338   2
   8  -3  -8 16.4579 4.25940   3
   8  -3  -8 18.8204 4.36266   1
  -8  -3   8 16.7466 8.18077   1
   8  -3  -8 26.7850 2.94838   2
   8   3  -8 25.5892 8.01196   1
   8   3  -8 25.7266 4.64874   3
   8   3  -8 17.6482 3.43725   2
   7  -3  -8 6.35408 2.53168   2
   7  -3  -8 2.26747 3.31992   1
  -7  -3   8 13.1063 8.18090   1
   7  -3  -8 4.64478 4.27357   3
   7  -3  -8 3.38720 2.15360   2
  -7  -3   8 7.92233 3.49955   3
   7   3  -8 0.72418 6.56947   1
   7   3  -8 9.43254 3.28651   2
   7   3  -8 1.62196 3.88671   3
   6  -3  -8 38.4816 5.17642   1
  -6  -3   8 45.0791 6.31255   2
   6  -3  -8 30.5979 3.39301   2
   6  -3  -8 35.3227 5.25328   3
  -6  -3   8 30.6670 9.57038   1
   6   3  -8 29.8168 8.10508   1
   6   3  -8 39.9950 4.75364   2
  -5  -3   8 0.71878 2.65808   3
   5  -3  -8 3.44903 3.34958   1
   5  -3  -8 2.55486 2.68626   2
  -5  -3   8 0.58091 7.44135   1
  -5  -3   8 -0.4391 3.91895   2
   5   3  -8 6.38199 3.16179   2
   5   3  -8 4.18431 6.76783   1
   5   3  -8 5.09106 3.26800   3
  -4  -3   8 -1.8628 6.35347   1
  -4  -3   8 0.55587 3.28812   2
   4  -3  -8 2.50959 2.82099   2
  -4  -3   8 4.17288 2.68969   3
   4  -3  -8 -0.2714 3.35730   1
   4   3  -8 3.01617 2.88263   3
   4   3  -8 -4.6753 2.94429   2
   4   3  -8 -4.3175 5.28256   1
  -3  -3   8 164.629 7.94220   3
   3  -3  -8 164.897 10.1178   1
   3  -3  -8 161.485 8.39920   2
  -3  -3   8 161.683 15.0261   1
  -3  -3   8 164.059 8.87258   2
   3   3  -8 159.587 9.03382   2
   3   3  -8 160.482 14.6953   1
   3   3  -8 162.848 8.17056   3
  -2  -3   8 186.135 8.47602   3
   2  -3  -8 186.743 14.6715   1
  -2  -3   8 208.970 16.2586   1
  -2  -3   8 174.683 9.46372   2
   2  -3  -8 186.021 11.0491   1
   2  -3  -8 201.264 9.24589   2
   2   3  -8 175.479 14.6299   1
   2   3  -8 180.796 8.55311   3
   2   3  -8 189.254 9.79025   2
   1  -3  -8 0.15832 2.72666   2
  -1  -3   8 10.7809 6.74150   1
  -1  -3   8 2.09089 2.04913   3
   1  -3  -8 -2.7144 4.16854   1
   1  -3  -8 6.38195 4.04886   1
  -1  -3   8 5.47667 3.31119   2
   1   3  -8 6.52885 5.47306   1
   1   3  -8 7.77146 3.26412   2
   1   3  -8 1.12291 2.22885   3
   0  -3   8 132.094 13.6605   1
   0  -3   8 118.433 8.70221   2
   0  -3  -8 143.545 10.2816   1
   0  -3  -8 145.183 8.03138   2
   0  -3  -8 140.658 9.92807   1
   0   3  -8 157.079 8.33652   2
   0   3  -8 141.092 6.51591   3
   0   3  -8 146.676 13.9090   1
   1  -3   8 459.465 24.8171   1
  -1  -3  -8 440.136 17.9494   2
  -1  -3  -8 443.804 20.8892   1
   1  -3   8 459.440 20.4722   2
  -1  -3  -8 452.773 21.1059   1
  -1   3  -8 423.205 16.4499   3
  -1   3  -8 441.258 18.1364   2
  -1   3  -8 394.162 23.5023   1
  -2  -3  -8 256.995 11.8251   2
  -2  -3  -8 272.074 15.1450   1
  -2  -3  -8 258.858 14.8788   1
   2  -3   8 271.860 18.9023   1
  -2   3  -8 238.877 11.7982   2
  -2   3  -8 243.358 9.68223   3
  -2   3  -8 247.166 17.7243   1
   3  -3   8 -1.7570 4.55810   2
   3  -3   8 -0.1819 5.61431   1
  -3  -3  -8 3.99286 3.28591   2
  -3  -3  -8 -0.8027 4.29128   1
  -3   3  -8 7.32335 7.17589   1
  -3   3  -8 -1.2749 3.26934   2
   4  -3   8 26.8248 4.24099   2
   4  -3   8 24.2843 7.82913   1
  -4  -3  -8 17.9556 3.60156   2
  -4  -3  -8 21.1839 6.13550   1
  -4   3  -8 22.1262 7.53704   1
  -4   3  -8 15.9075 3.33562   2
  -4   3  -8 15.1841 7.55475   1
   5  -3   8 17.7430 3.70251   2
  -5  -3  -8 17.0444 6.37346   1
  -5  -3  -8 22.1136 4.26726   2
  -5   3  -8 16.7440 7.57719   1
  -5   3  -8 28.7451 4.25654   2
  -5   3  -8 16.7252 6.77034   1
  -6  -3  -8 525.544 26.9513   1
   6  -3   8 528.105 21.4310   2
  -6  -3  -8 544.455 21.7733   2
  -6   3  -8 527.949 27.7721   1
  -6   3  -8 557.708 28.6394   1
  -6   3  -8 559.326 21.6778   2
  -7  -3  -8 10.3270 6.36783   1
   7  -3   8 1.26798 2.73138   2
  -7  -3  -8 8.39801 4.03418   2
  -7   3  -8 4.17117 5.95211   1
  -7   3  -8 4.97241 2.95620   2
  -7   3  -8 7.52777 6.81482   1
   8  -3   8 4.35040 2.87931   2
  -8  -3  -8 0.00615 6.16432   1
  -8  -3  -8 2.31468 3.55311   2
  -8   3  -8 6.30119 5.90788   1
  -8   3  -8 2.06904 2.85730   2
  -8   3  -8 8.73277 6.98695   1
   9  -3   8 -0.8191 2.87562   2
  -9  -3  -8 -1.5434 6.39920   1
  -9  -3  -8 -0.7030 3.57003   2
  -9   3  -8 1.18419 2.89032   2
  -9   3  -8 2.07146 6.11831   1
  -9   3  -8 2.38563 6.36840   1
 -10  -3  -8 226.362 11.6796   2
 -10  -3  -8 212.112 18.4151   1
 -10   3  -8 222.619 18.0553   1
 -10   3  -8 225.260 10.9964   2
 -10   3  -8 218.650 18.3764   1
 -11  -3  -8 91.9914 13.3773   1
 -11  -3  -8 92.9655 7.99959   2
 -11   3  -8 69.6584 11.2837   1
 -11   3  -8 80.5480 6.89076   2
 -11   3  -8 88.9248 13.0907   1
 -12  -3  -8 25.6648 10.1050   1
 -12  -3  -8 41.5201 6.29484   2
 -12   3  -8 20.7143 9.17810   1
 -12   3  -8 34.3564 9.38157   1
 -12   3  -8 29.5514 4.34984   2
 -13  -3  -8 35.0776 5.47789   2
 -13  -3  -8 20.3468 10.7068   1
 -13   3  -8 25.4507 3.90876   2
 -13   3  -8 13.9285 8.72627   1
 -14  -3  -8 3.23296 11.4845   1
 -14  -3  -8 31.3919 5.10876   2
 -14   3  -8 14.5627 14.2228   1
 -14   3  -8 27.5336 3.90252   2
 -14   3  -8 38.4548 10.0288   1
 -15  -3  -8 74.3090 14.3356   1
 -15  -3  -8 48.7091 5.66106   2
 -15   3  -8 65.3030 6.41927   2
 -16  -3  -8 9.75186 4.42221   2
 -16   3  -8 28.5963 4.26753   2
 -17  -3  -8 42.0003 5.85291   2
 -17   3  -8 17.0318 3.88543   2
 -18  -3  -8 1.45620 4.30484   2
 -18   3  -8 -3.6230 3.10905   2
 -19  -3  -8 5.93728 4.19756   2
 -19   3  -8 4.69013 3.34334   2
  19   4  -8 7.78861 5.82748   3
  18  -4  -8 -1.0137 5.81354   1
  18  -4  -8 1.74165 4.54348   3
 -18  -4   8 5.69223 14.4200   1
  18   4  -8 -0.1413 5.69582   3
  17  -4  -8 5.94921 5.69396   1
 -17  -4   8 13.7982 20.5545   1
  17  -4  -8 -1.6486 4.36206   3
  17   4  -8 9.43057 5.68374   3
 -16  -4   8 13.6824 11.6418   1
  16  -4  -8 -2.7621 3.96836   3
  16  -4  -8 0.76374 5.05451   1
  16   4  -8 4.73704 8.19330   1
  16   4  -8 -3.0070 4.65137   3
  15  -4  -8 4.40619 4.42551   3
  15  -4  -8 2.31114 4.53656   1
 -15  -4   8 25.0023 12.1477   1
  15   4  -8 -0.6742 5.13462   3
  15   4  -8 11.1857 7.80036   1
  14  -4  -8 51.1726 6.42540   3
  14  -4  -8 38.1705 2.93731   2
  14  -4  -8 38.7444 3.10550   2
  14  -4  -8 32.8967 6.00609   1
 -14  -4   8 18.8593 12.0841   1
  14   4  -8 21.6729 5.73220   2
  14   4  -8 36.4248 6.00930   3
  13  -4  -8 80.8291 7.95034   3
  13  -4  -8 75.9826 8.04984   1
 -13  -4   8 75.5808 14.4813   1
  13   4  -8 57.0621 7.35359   2
  13   4  -8 102.977 9.02547   3
  13   4  -8 57.2837 11.0636   1
  12  -4  -8 -0.2523 1.82435   2
  12  -4  -8 -0.9574 3.83773   3
  12  -4  -8 1.02211 3.44403   1
 -12  -4   8 7.73206 9.13746   1
  12   4  -8 1.19119 6.69102   1
  12   4  -8 -0.2695 2.96125   2
  12   4  -8 2.75501 4.67752   3
 -11  -4   8 -5.6248 8.73577   1
  11  -4  -8 6.64435 3.24872   1
  11  -4  -8 0.76676 3.69672   3
  11  -4  -8 0.28738 2.24550   2
  11  -4  -8 4.49746 2.09852   2
  11   4  -8 -0.2598 4.18381   3
  11   4  -8 0.30617 6.61751   1
  11   4  -8 0.91594 3.02921   2
  10  -4  -8 9.60163 2.50266   2
  10  -4  -8 11.9517 4.36768   3
  10  -4  -8 10.3505 2.62150   2
  10  -4  -8 9.97249 2.98092   1
 -10  -4   8 7.11017 8.47141   1
  10   4  -8 13.3578 3.72972   2
  10   4  -8 12.5195 7.19480   1
  10   4  -8 11.0679 4.25962   3
   9  -4  -8 3.82015 2.32951   2
   9  -4  -8 1.39420 4.37769   3
  -9  -4   8 5.57800 8.34489   1
   9  -4  -8 1.22261 2.04930   1
   9  -4  -8 -1.4837 2.45236   2
   9   4  -8 1.70801 7.20667   1
   9   4  -8 2.69953 3.75304   2
   9   4  -8 7.97671 4.00155   3
   8  -4  -8 145.109 7.48549   2
  -8  -4   8 124.639 15.7756   1
   8  -4  -8 120.893 7.19789   2
   8  -4  -8 141.644 9.28012   3
   8   4  -8 156.024 8.83685   3
   8   4  -8 138.331 15.0591   1
   8   4  -8 104.928 8.43399   2
   7  -4  -8 18.1583 4.80359   3
   7  -4  -8 12.8999 3.24745   2
   7  -4  -8 18.2817 3.25796   2
  -7  -4   8 15.0290 9.47221   1
   7   4  -8 11.7679 4.15599   2
   7   4  -8 25.3246 8.38747   1
   7   4  -8 14.9571 4.01792   3
   6  -4  -8 360.093 14.9731   2
   6  -4  -8 359.663 14.9988   2
  -6  -4   8 321.356 23.3860   1
   6   4  -8 341.958 15.8866   2
   6   4  -8 357.539 15.3324   3
   6   4  -8 358.452 23.0999   1
  -5  -4   8 96.8091 14.0003   1
   5  -4  -8 114.555 7.53081   2
  -5  -4   8 117.803 7.24693   3
   5   4  -8 128.845 8.89438   2
   5   4  -8 110.253 7.42389   3
   5   4  -8 126.869 14.5046   1
   4  -4  -8 64.3396 6.31724   2
  -4  -4   8 61.3661 5.36357   3
  -4  -4   8 56.5658 11.1341   1
   4  -4  -8 51.5550 5.36246   2
   4   4  -8 55.6564 5.39198   3
   4   4  -8 68.7814 10.5902   1
   4   4  -8 59.6005 5.87732   2
   3  -4  -8 -0.9811 3.06182   2
   3  -4  -8 2.06378 2.78343   2
   3  -4  -8 5.95345 2.50274   1
  -3  -4   8 0.39576 2.39467   3
   3  -4  -8 -3.8261 3.42668   1
  -3  -4   8 0.42607 6.85562   1
   3   4  -8 0.39557 2.51532   3
   3   4  -8 -12.812 5.71401   1
   3   4  -8 1.42947 3.27816   2
  -2  -4   8 20.3597 2.92389   3
   2  -4  -8 18.2234 3.54794   2
  -2  -4   8 28.8470 9.34218   1
   2  -4  -8 16.2831 3.49052   1
   2  -4  -8 13.9453 3.39286   1
   2  -4  -8 15.3960 3.91559   2
   2   4  -8 9.09291 3.65943   2
   2   4  -8 16.4951 2.86020   3
   2   4  -8 3.52539 6.40044   1
   1  -4  -8 76.2206 6.92037   1
  -1  -4   8 70.9425 4.72956   3
   1  -4  -8 79.5871 6.95810   2
   1  -4  -8 74.7947 6.95599   1
   1  -4  -8 65.6879 7.81729   2
  -1  -4   8 97.7447 13.1107   1
   1   4  -8 78.7976 4.88156   3
   1   4  -8 81.7634 7.20478   2
   1   4  -8 88.4020 11.7072   1
   0  -4   8 20.6405 8.22965   1
   0  -4  -8 41.6676 5.73844   1
   0  -4  -8 35.2165 4.56811   2
   0  -4  -8 31.5947 5.16899   1
   0   4  -8 34.9997 4.77921   2
   0   4  -8 39.5430 8.67584   1
   0   4  -8 32.0759 3.35766   3
   1  -4   8 45.1968 9.72241   1
  -1  -4  -8 59.6668 7.50823   1
  -1  -4  -8 63.1129 7.55490   1
  -1  -4  -8 56.1755 6.59164   2
  -1   4  -8 45.2301 8.99894   1
  -1   4  -8 50.4001 3.29844   3
  -1   4  -8 58.8088 6.88422   2
   2  -4   8 21.2269 8.28829   1
  -2  -4  -8 20.7769 5.19580   1
  -2  -4  -8 25.8123 4.68564   2
  -2  -4  -8 24.6682 5.78536   1
  -2   4  -8 30.9711 8.10721   1
  -2   4  -8 13.7144 4.11907   2
  -3  -4  -8 17.2770 5.47055   1
  -3  -4  -8 10.1550 4.15973   2
   3  -4   8 5.93840 7.19536   1
  -3   4  -8 5.96943 3.75905   2
  -3   4  -8 8.45936 6.66978   1
  -3   4  -8 21.2201 6.85790   1
  -4  -4  -8 5.55825 4.96530   1
   4  -4   8 -7.1217 6.42702   1
  -4  -4  -8 -0.0499 3.59425   2
  -4   4  -8 -4.4871 5.44529   1
  -4   4  -8 0.13861 3.50064   2
  -4   4  -8 -2.0712 5.63908   1
  -5  -4  -8 1.21709 3.96394   2
  -5  -4  -8 1.98029 5.35741   1
  -5   4  -8 0.90666 5.67319   1
  -5   4  -8 2.58172 5.83766   1
  -5   4  -8 -1.8927 3.49066   2
  -6  -4  -8 4.69816 5.89108   1
  -6  -4  -8 2.67057 3.81162   2
  -6   4  -8 1.12627 5.88796   1
  -6   4  -8 3.70920 6.42949   1
  -6   4  -8 -1.4495 3.23817   2
  -7  -4  -8 3.56774 5.39495   2
  -7  -4  -8 0.79195 5.91707   1
  -7   4  -8 5.73047 6.47374   1
  -7   4  -8 6.94921 3.56408   2
  -7   4  -8 -2.0247 5.73920   1
  -8  -4  -8 13.2484 4.68007   2
  -8   4  -8 22.2538 4.17279   2
  -8   4  -8 8.78252 6.60079   1
  -8   4  -8 4.07794 6.83880   1
  -9  -4  -8 58.9233 6.16254   2
  -9  -4  -8 56.7094 10.7852   1
  -9   4  -8 50.8432 9.94585   1
  -9   4  -8 69.5414 7.18470   2
  -9   4  -8 57.1242 13.9866   1
 -10  -4  -8 100.113 13.8701   1
 -10  -4  -8 103.681 9.04201   2
 -10   4  -8 105.112 17.9306   1
 -10   4  -8 98.2612 13.0345   1
 -10   4  -8 97.9027 8.06964   2
 -11  -4  -8 79.8901 7.56808   2
 -11  -4  -8 98.0064 19.8577   1
 -11   4  -8 70.5234 11.7028   1
 -11   4  -8 69.2300 7.24225   2
 -12  -4  -8 17.2002 5.56472   2
 -12   4  -8 14.2647 4.11610   2
 -13  -4  -8 5.54082 5.02165   2
 -13   4  -8 5.21088 7.95774   2
 -14  -4  -8 10.8200 5.38590   2
 -14   4  -8 10.1117 4.38755   2
 -14   4  -8 17.4376 14.3229   1
 -15  -4  -8 108.671 9.54521   2
 -15   4  -8 99.8830 17.1467   1
 -15   4  -8 92.8964 7.87657   2
 -16  -4  -8 4.74213 4.74327   2
 -16   4  -8 -3.2982 3.60569   2
  16  -5  -8 9.36677 7.15184   3
  16   5  -8 1.52337 5.11266   3
  15  -5  -8 -2.3666 3.91456   3
  15   5  -8 8.05500 5.45504   3
  14  -5  -8 4.88573 4.55978   3
  14  -5  -8 4.24818 2.24354   2
  14   5  -8 7.06947 5.49697   3
  13  -5  -8 -3.3014 4.11653   3
  13  -5  -8 1.82922 2.30856   2
  13   5  -8 5.47601 8.56183   3
  13   5  -8 -1.2271 4.25693   2
  12  -5  -8 18.8052 5.08885   3
  12  -5  -8 17.4287 3.17931   2
  12   5  -8 13.0116 4.25589   2
  12   5  -8 14.1758 5.37418   3
  11  -5  -8 48.9009 4.84434   2
 -11  -5   8 42.4088 14.3000   1
  11  -5  -8 63.7791 7.83303   3
  11  -5  -8 60.8472 5.69142   2
  11   5  -8 68.4495 8.38572   3
  11   5  -8 55.5978 6.50790   2
 -10  -5   8 12.6368 11.0737   1
  10  -5  -8 11.1494 4.73135   3
  10  -5  -8 9.09784 3.21204   2
  10   5  -8 13.0192 4.68876   3
  10   5  -8 12.3872 4.33592   2
   9  -5  -8 13.3391 3.38585   2
   9  -5  -8 7.63857 5.01707   3
  -9  -5   8 30.7920 11.2210   1
   9   5  -8 10.8858 11.6756   1
   9   5  -8 -2.5854 4.25266   2
   9   5  -8 9.52195 4.53145   3
   8  -5  -8 17.3321 3.54667   2
   8  -5  -8 17.8902 5.06317   3
  -8  -5   8 7.04668 10.2712   1
   8   5  -8 19.8811 8.30377   1
   8   5  -8 16.6559 4.45497   3
   8   5  -8 13.7557 4.16369   2
   7  -5  -8 14.3945 3.48896   2
  -7  -5   8 29.4995 10.1902   1
   7  -5  -8 14.2189 4.84530   3
   7   5  -8 26.4056 4.28051   3
   7   5  -8 16.7811 4.59437   2
   7   5  -8 -4.2139 7.13446   1
   6  -5  -8 0.22285 3.36036   2
  -6  -5   8 -5.2106 13.4614   1
   6   5  -8 6.34509 4.58748   2
   6   5  -8 8.18321 6.87579   1
   6   5  -8 -2.0272 3.28115   3
   5  -5  -8 12.0676 4.14168   2
   5   5  -8 7.33377 3.43652   3
   5   5  -8 9.07696 4.70671   2
   5   5  -8 12.8307 7.11052   1
   4  -5  -8 -0.2264 3.47057   2
  -4  -5   8 -0.4437 2.55166   3
   4   5  -8 0.71162 5.91852   1
   4   5  -8 0.10289 3.90606   3
   4   5  -8 -3.7136 4.22035   2
   3  -5  -8 -2.6431 3.91804   2
  -3  -5   8 -9.4089 13.6047   1
   3   5  -8 0.48982 5.99333   1
   3   5  -8 -4.7760 4.02944   2
  -2  -5   8 0.03931 11.6886   1
   2  -5  -8 2.88315 3.85195   2
  -2  -5   8 2.45633 2.26843   3
   2   5  -8 4.64296 2.71967   3
   2   5  -8 2.90109 4.15065   2
   2   5  -8 4.53674 6.25823   1
  -1  -5   8 40.2430 3.73233   3
   1  -5  -8 42.1549 9.28524   2
   1   5  -8 44.7707 4.15311   3
   1   5  -8 32.0785 8.69869   1
   1   5  -8 38.3865 5.13161   2
   0  -5  -8 5.01600 2.88121   1
   0  -5  -8 4.43954 2.68664   1
   0  -5  -8 3.98047 4.49709   2
   0   5  -8 -4.4659 5.75152   1
   0   5  -8 -0.7439 3.85599   2
   1  -5   8 78.3050 14.6545   1
  -1  -5  -8 39.1214 5.31299   2
  -1  -5  -8 50.2211 6.85271   1
  -1   5  -8 50.0357 9.31013   1
  -1   5  -8 30.6556 8.16588   1
  -1   5  -8 65.5902 6.65455   2
  -2  -5  -8 -1.9208 3.76689   1
   2  -5   8 1.00044 7.31928   1
  -2  -5  -8 0.83408 3.92510   1
  -2  -5  -8 -1.4035 3.80084   2
  -2   5  -8 1.89457 6.59282   1
  -2   5  -8 -11.714 5.37804   1
  -2   5  -8 2.79886 3.74314   2
  -3  -5  -8 4.17824 4.42865   2
   3  -5   8 9.38544 7.62872   1
  -3  -5  -8 0.42919 4.41616   1
  -3   5  -8 7.96073 4.57084   2
  -3   5  -8 -0.3987 5.89929   1
  -3   5  -8 6.48573 6.28211   1
  -4  -5  -8 1.84025 4.53443   2
   4  -5   8 -2.0094 7.22775   1
  -4  -5  -8 -6.2860 4.86237   1
  -4   5  -8 -3.1328 5.36918   1
  -4   5  -8 -1.4171 6.33293   1
  -4   5  -8 2.10552 3.92569   2
  -5  -5  -8 2.38799 4.38332   2
  -5   5  -8 3.80452 6.69372   1
  -5   5  -8 0.26357 6.79102   1
  -5   5  -8 -2.9849 3.39834   2
  -6  -5  -8 4.00691 4.86426   2
  -6   5  -8 4.08363 6.74593   1
  -6   5  -8 -3.0073 3.47728   2
  -7  -5  -8 -4.9902 4.24060   2
  -7   5  -8 11.7734 7.61324   1
  -7   5  -8 3.34602 3.85098   2
  -8  -5  -8 1.10339 4.80943   2
  -8   5  -8 0.24384 3.69934   2
  -8   5  -8 -15.268 7.04554   1
  -9  -5  -8 34.7182 6.26077   2
  -9   5  -8 16.2928 9.14007   1
  -9   5  -8 15.8602 4.03293   2
 -10  -5  -8 8.10194 5.13281   2
 -10   5  -8 11.9420 4.13290   2
 -10   5  -8 7.45874 9.52584   1
 -11  -5  -8 0.82082 4.79426   2
 -11   5  -8 4.18759 4.20450   2
 -11   5  -8 -4.4709 9.72120   1
 -12  -5  -8 8.07711 5.68907   2
 -12   5  -8 1.09963 3.62746   2
 -12   5  -8 21.2998 16.0883   1
 -13  -5  -8 5.30291 7.53065   2
 -13   5  -8 0.78619 3.59261   2
  10  -6  -8 0.46380 3.19044   2
  10  -6  -8 -3.1432 4.46836   3
  10   6  -8 4.62085 4.95836   2
  10   6  -8 -2.8410 4.16353   3
   9  -6  -8 16.9052 8.45912   3
   9  -6  -8 10.3842 3.78307   2
   9   6  -8 21.3169 4.71381   3
   9   6  -8 -1.2640 8.21273   2
   8  -6  -8 25.9508 4.59181   2
   8   6  -8 31.8458 4.96567   3
   8   6  -8 34.3709 8.49362   2
   7  -6  -8 19.7257 4.84706   2
   7   6  -8 21.6801 5.17052   2
   7   6  -8 16.7655 4.31811   3
   6  -6  -8 17.7852 4.61959   2
   6   6  -8 13.3677 4.68442   2
   6   6  -8 21.9080 4.38965   3
   5  -6  -8 2.51441 4.38201   2
   5   6  -8 -0.0023 3.39258   3
   5   6  -8 3.84967 4.22549   2
   4  -6  -8 25.1869 5.07549   2
   4   6  -8 34.4170 4.28200   3
   4   6  -8 19.9908 4.91167   2
   3  -6  -8 4.88375 4.82162   2
   3   6  -8 2.64078 4.90270   2
   2  -6  -8 2.33978 4.23790   2
   2   6  -8 7.63380 5.12667   2
   1  -6  -8 -2.0782 4.02865   2
   1   6  -8 2.51433 9.78972   1
   1   6  -8 -4.3261 3.88019   2
   0  -6  -8 17.2665 4.82863   2
   0   6  -8 33.6059 6.19087   2
  -1  -6  -8 -1.3483 4.23203   2
  -1   6  -8 0.74304 3.93896   2
  -2  -6  -8 7.72224 4.73494   2
  -2   6  -8 17.8126 10.1527   1
  -2   6  -8 7.19015 5.19197   2
  -3  -6  -8 -0.8912 7.15421   1
  -3  -6  -8 4.02887 5.28285   2
  -3   6  -8 13.1528 4.82618   2
  -3   6  -8 8.58908 8.55904   1
  -4  -6  -8 20.2428 5.76685   2
  -4   6  -8 10.8271 4.22236   2
  -4   6  -8 21.8915 9.09439   1
  -5  -6  -8 -6.9993 5.35061   1
  -5  -6  -8 1.18131 5.56005   2
  -5   6  -8 3.15739 4.09328   2
  -5   6  -8 6.47050 8.82887   1
  -6  -6  -8 14.6849 10.5916   2
  -6   6  -8 9.40633 9.35761   1
  -6   6  -8 0.88138 4.11163   2
  -7  -6  -8 9.57237 5.59045   2
  -7   6  -8 -1.7499 10.4695   1
  -7   6  -8 9.79775 4.35932   2
  24   0  -9 8.17830 6.22623   3
  23   0  -9 -2.4754 5.86057   3
 -22   0   9 -0.9024 22.4976   1
  22   0  -9 4.71037 6.69258   3
  22   0  -9 -6.8823 7.77719   1
  21   0  -9 0.23504 5.50984   3
  21   0  -9 -0.0349 7.95322   1
 -21   0   9 4.40619 13.7245   1
  20   0  -9 -5.0116 5.32480   3
  20   0  -9 -9.5077 7.10775   1
 -20   0   9 2.63962 9.80446   1
  19   0  -9 -5.6158 5.62772   3
  19   0  -9 0.14150 6.82696   1
 -19   0   9 -8.8534 8.93756   1
 -18   0   9 1.29883 8.20498   1
  18   0  -9 -3.6278 5.92278   1
  18   0  -9 2.83132 5.36418   3
  17   0  -9 3.23917 5.00760   3
 -17   0   9 -10.128 7.17054   1
  17   0  -9 -3.3457 6.58994   1
  16   0  -9 0.62059 4.72379   3
 -16   0   9 5.97806 7.98012   1
  16   0  -9 0.40416 6.01250   1
  15   0  -9 7.01751 7.58830   1
 -15   0   9 7.26411 7.80332   1
  15   0  -9 7.00092 4.71683   3
 -15   0   9 0.72676 1.40638   2
  15   0  -9 1.53546 1.27351   2
  14   0  -9 1.96413 4.75383   3
 -14   0   9 1.05360 6.98646   1
 -14   0   9 -1.8719 1.51978   2
  14   0  -9 -9.4903 5.99307   1
  14   0  -9 -0.7336 1.48893   2
 -13   0   9 2.10071 7.27464   1
  13   0  -9 1.79620 1.76706   2
 -13   0   9 5.82120 1.90110   2
  13   0  -9 0.30653 4.78485   3
  13   0  -9 1.45128 5.73871   1
  12   0  -9 4.11429 5.74756   1
  12   0  -9 1.18390 1.85963   2
 -12   0   9 4.23754 6.89841   1
  12   0  -9 -0.2599 4.42719   3
 -12   0   9 1.86513 1.89660   2
  11   0  -9 -2.0739 4.02101   3
 -11   0   9 -1.7402 1.83159   2
  11   0  -9 0.67705 1.88847   2
  11   0  -9 0.50757 5.34168   1
 -11   0   9 -3.7627 6.04817   1
 -10   0   9 3.86425 6.16006   1
  10   0  -9 1.05434 5.84209   1
  10   0  -9 -1.8970 1.92153   2
  10   0  -9 1.13287 3.83185   3
 -10   0   9 1.15820 1.89715   2
   9   0  -9 4.51134 2.08246   2
   9   0  -9 3.41518 5.17924   1
   9   0  -9 6.35659 4.17487   3
  -9   0   9 0.65074 2.28124   2
  -9   0   9 10.0296 6.30808   1
   8   0  -9 1.70858 3.55481   3
  -8   0   9 0.52815 5.97127   1
   8   0  -9 -1.2561 2.02361   2
   8   0  -9 -0.9277 4.41398   1
  -7   0   9 -0.0551 2.00668   2
   7   0  -9 2.23177 1.99751   2
   7   0  -9 2.03074 4.67852   1
  -7   0   9 -3.6732 4.30713   1
  -6   0   9 2.24382 4.67585   1
   6   0  -9 0.41013 4.49082   1
  -6   0   9 -0.3805 2.05283   2
   6   0  -9 -5.2964 2.69678   3
   5   0  -9 -2.2812 5.10108   1
   5   0  -9 -0.4525 2.21570   2
  -5   0   9 -0.6775 2.01025   2
  -5   0   9 0.30576 4.64630   1
   5   0  -9 -1.4944 2.72979   3
   4   0  -9 4.48025 3.12321   3
  -4   0   9 3.76944 5.16358   1
   4   0  -9 6.47406 2.41884   2
  -4   0   9 4.82293 1.97215   2
   4   0  -9 -4.7398 4.04937   1
   3   0  -9 -0.2307 4.58296   1
   3   0  -9 -4.8385 2.42576   3
  -3   0   9 -1.7430 4.57420   1
  -3   0   9 -2.2351 2.02011   2
   3   0  -9 -2.1079 2.07868   2
  -2   0   9 -3.5249 1.79921   2
  -2   0   9 -3.3578 3.90404   1
   2   0  -9 0.02876 2.44267   3
   2   0  -9 -1.1610 4.48366   1
   1   0  -9 -2.3546 4.00948   1
  -1   0   9 -1.9695 4.12085   1
   1   0  -9 -2.8037 2.44145   3
   1   0  -9 -0.2495 2.54192   2
  -1   0   9 -0.0269 1.88708   2
   0   0   9 1.93599 4.87279   1
   0   0   9 2.10335 1.98638   2
   0   0  -9 -3.5038 4.56477   1
   0   0  -9 -0.8598 2.45434   2
   0   0  -9 -3.1546 2.45377   3
   1   0   9 3.18261 2.18552   2
  -1   0  -9 2.72850 2.71055   2
  -1   0  -9 -1.5619 4.52496   1
  -2   0  -9 1.78084 5.94717   1
  -2   0  -9 1.79643 2.41639   2
   2   0   9 -1.0855 2.06637   2
  -3   0  -9 -0.4597 4.98391   1
  -3   0  -9 7.50519 5.37776   1
  -3   0  -9 -0.1994 2.35291   2
   3   0   9 2.35657 2.26841   2
  -4   0  -9 -0.3021 2.26269   3
   4   0   9 -0.9429 2.29270   2
  -4   0  -9 -1.6400 2.37193   2
  -4   0  -9 4.60590 5.46166   1
  -4   0  -9 -7.7546 5.22962   1
  -5   0  -9 -5.1332 5.83495   1
  -5   0  -9 -1.0130 2.69486   2
  -5   0  -9 0.14552 2.55956   3
  -5   0  -9 2.20595 5.12364   1
   5   0   9 -2.1743 2.18579   2
  -6   0  -9 1.71194 5.18815   1
  -6   0  -9 1.42194 2.52635   3
  -6   0  -9 0.22541 2.87043   2
   6   0   9 1.31449 2.27378   2
  -6   0  -9 -2.2166 5.28949   1
  -7   0  -9 -2.0238 2.90276   2
  -7   0  -9 3.71412 5.99837   1
   7   0   9 -0.5411 2.46680   2
  -7   0  -9 6.27730 6.10646   1
  -7   0  -9 0.34354 2.43437   3
  -8   0  -9 -3.0184 4.95732   1
  -8   0  -9 -3.8231 2.74052   2
  -8   0  -9 1.09723 2.52051   3
   8   0   9 -0.9917 2.23163   2
  -8   0  -9 2.11726 6.82717   1
  -9   0  -9 -1.5414 2.63140   2
  -9   0  -9 -3.7509 6.20874   1
  -9   0  -9 -2.0018 5.69397   1
   9   0   9 0.15638 2.56348   2
  -9   0  -9 -0.7683 2.56506   3
 -10   0  -9 -0.8552 2.96555   2
 -10   0  -9 -5.5732 5.83561   1
 -10   0  -9 3.13763 6.18243   1
  10   0   9 1.27770 2.64771   2
 -10   0  -9 -4.1767 2.59742   3
  11   0   9 -1.7884 2.18548   2
 -11   0  -9 0.05608 2.61405   2
 -11   0  -9 2.36230 6.12002   1
 -11   0  -9 -1.6652 6.54503   1
 -12   0  -9 1.00827 3.12436   2
 -12   0  -9 3.21024 6.31046   1
 -12   0  -9 0.49721 6.76166   1
  12   0   9 -0.3095 2.31362   2
 -12   0  -9 5.18285 2.77982   3
 -13   0  -9 -1.3698 3.09844   3
 -13   0  -9 12.9448 8.37835   1
 -13   0  -9 -0.5992 2.95862   2
 -13   0  -9 -1.1609 7.11221   1
 -14   0  -9 3.32044 7.78216   1
 -14   0  -9 -1.8462 2.74919   2
 -14   0  -9 8.64078 7.04563   1
 -15   0  -9 1.46863 2.91175   2
 -15   0  -9 -6.8186 8.23697   1
 -15   0  -9 5.69413 7.21228   1
 -16   0  -9 7.57717 7.80619   1
 -16   0  -9 21.0191 15.8678   1
 -16   0  -9 -3.6010 2.84327   2
 -17   0  -9 4.44329 3.33076   2
 -17   0  -9 -2.5109 7.58816   1
 -17   0  -9 -9.2819 9.23894   1
 -18   0  -9 -0.5181 3.47152   2
 -18   0  -9 1.22622 8.05453   1
 -18   0  -9 16.2197 12.7513   1
 -19   0  -9 0.76133 3.21128   2
 -19   0  -9 10.2691 12.4000   1
 -20   0  -9 -13.600 11.2629   1
 -20   0  -9 -3.0242 3.19169   2
 -20   0  -9 0.55802 16.2073   1
  23  -1  -9 4.11251 5.83250   3
  23   1  -9 -0.6429 5.82454   3
  23   1  -9 -5.9540 9.80839   1
  22  -1  -9 -2.9877 5.83061   3
 -22  -1   9 12.8363 15.6561   1
  22  -1  -9 -12.126 8.18651   1
  22   1  -9 -0.9113 10.3624   1
  22   1  -9 -1.1715 6.77241   3
 -22   1   9 14.4373 12.5253   1
  21  -1  -9 3.86181 6.38460   3
 -21  -1   9 -5.3288 12.1351   1
  21  -1  -9 -3.2231 7.47276   1
 -21   1   9 -6.3516 10.0683   1
  21   1  -9 6.62221 9.30022   1
  21   1  -9 0.64253 5.80377   3
  20  -1  -9 -5.8112 7.05168   1
  20  -1  -9 4.18888 6.16573   3
 -20  -1   9 3.39015 11.1269   1
  20   1  -9 21.5855 9.57531   3
  20   1  -9 9.38427 8.07536   1
 -20   1   9 -9.6235 10.5121   1
 -19  -1   9 4.62831 1.64047   2
  19  -1  -9 9.35063 6.21045   3
  19  -1  -9 2.81389 6.73282   1
 -19  -1   9 4.98630 10.4370   1
  19   1  -9 -5.4492 7.94920   1
  19   1  -9 5.74054 5.61455   3
 -18  -1   9 3.63986 1.97037   2
  18  -1  -9 8.50356 6.62048   1
 -18  -1   9 12.8951 9.11034   1
  18  -1  -9 1.79292 5.65518   3
  18   1  -9 5.06646 6.03380   3
  18   1  -9 4.87073 7.63164   1
  17  -1  -9 45.4604 9.56347   1
  17  -1  -9 70.8490 7.94520   3
 -17  -1   9 57.6238 4.93979   2
 -17  -1   9 38.0009 12.3313   1
  17   1  -9 55.3263 7.07284   3
  17   1  -9 51.6637 11.2797   1
 -17   1   9 58.4145 12.7647   1
  16  -1  -9 4.94280 5.31646   3
 -16  -1   9 0.58600 9.46107   1
  16  -1  -9 -3.5978 4.98632   1
  16   1  -9 8.98520 2.40526   2
  16   1  -9 4.54951 5.51586   3
  16   1  -9 -0.2053 7.08880   1
 -15  -1   9 147.207 7.28561   2
  15  -1  -9 163.685 10.5388   3
  15  -1  -9 132.715 14.0683   1
 -15  -1   9 115.293 15.7289   1
  15   1  -9 121.217 15.7416   1
  15   1  -9 165.001 10.7215   3
  14  -1  -9 88.5257 12.0335   1
 -14  -1   9 99.5197 6.02303   2
 -14  -1   9 86.3615 13.9931   1
  14  -1  -9 128.148 8.97037   3
  14   1  -9 112.650 9.49635   3
  14   1  -9 84.6309 12.2370   1
  14   1  -9 94.8596 6.23495   2
  13  -1  -9 16.8137 6.96071   1
 -13  -1   9 24.1960 2.99971   2
  13  -1  -9 23.0506 4.95472   3
 -13  -1   9 13.5269 8.26408   1
  13  -1  -9 27.3894 2.53331   2
  13   1  -9 27.9348 5.20134   3
 -13   1   9 22.7791 11.7365   1
  13   1  -9 10.0016 6.93720   1
  13   1  -9 24.5212 2.89409   2
 -12  -1   9 -11.558 8.64981   1
  12  -1  -9 9.40718 6.05796   1
  12  -1  -9 3.78565 1.64036   2
 -12  -1   9 2.34570 2.35979   2
  12  -1  -9 3.49209 4.66300   3
  12   1  -9 10.8400 7.16474   1
  12   1  -9 1.89998 2.21717   2
 -12   1   9 2.43641 6.00924   1
  12   1  -9 -4.5695 4.25462   3
  11  -1  -9 559.829 20.2938   2
 -11  -1   9 547.435 20.8025   2
  11  -1  -9 499.383 26.8785   1
 -11  -1   9 474.920 42.0271   1
  11  -1  -9 601.117 22.5779   3
  11   1  -9 586.914 22.7170   3
  11   1  -9 513.510 29.2444   1
 -11   1   9 521.289 26.6352   1
  11   1  -9 521.297 20.9864   2
 -10  -1   9 -1.5317 2.42592   2
  10  -1  -9 10.6466 5.83957   1
  10  -1  -9 3.21273 4.13437   3
  10  -1  -9 4.05750 1.96680   2
  10   1  -9 -12.284 5.72856   1
  10   1  -9 4.67262 4.04262   3
  10   1  -9 8.48406 3.07188   2
 -10   1   9 2.34438 5.74094   1
 -10   1   9 4.56067 1.87747   2
  -9  -1   9 525.528 24.0768   3
  -9  -1   9 600.801 39.0324   1
   9  -1  -9 628.663 28.9094   1
  -9  -1   9 626.024 22.9539   2
   9  -1  -9 616.729 24.2148   3
   9  -1  -9 651.807 22.5962   2
  -9   1   9 618.235 27.8795   1
   9   1  -9 633.425 24.3080   3
  -9   1   9 620.053 22.4985   2
   9   1  -9 500.203 25.4750   2
   9   1  -9 611.173 30.9701   1
   8  -1  -9 3.46442 2.05882   2
  -8  -1   9 2.71783 2.46575   2
  -8  -1   9 5.15441 7.85896   1
  -8  -1   9 7.54343 3.72998   3
   8  -1  -9 4.08769 4.25208   3
   8  -1  -9 3.31828 4.98227   1
  -8   1   9 1.92765 1.85678   2
   8   1  -9 -5.5656 4.70524   1
  -8   1   9 0.44579 4.86426   1
   8   1  -9 7.73980 4.02909   3
  -7  -1   9 420.570 27.1521   1
  -7  -1   9 437.969 16.6197   2
   7  -1  -9 413.065 18.2352   3
   7  -1  -9 419.750 21.7464   1
   7  -1  -9 425.542 16.3508   2
   7   1  -9 387.316 18.8330   2
  -7   1   9 420.401 20.8935   1
   7   1  -9 460.718 23.6020   1
  -6  -1   9 192.182 18.0737   1
  -6  -1   9 203.289 8.88704   2
   6  -1  -9 193.333 9.90344   3
  -6  -1   9 194.955 9.56922   3
   6  -1  -9 191.344 13.2740   1
   6  -1  -9 194.365 9.17455   2
  -6   1   9 194.953 12.8393   1
   6   1  -9 187.864 9.71999   3
   6   1  -9 211.373 15.7258   1
  -6   1   9 194.328 8.47995   2
   6   1  -9 216.562 9.49109   2
  -5  -1   9 15.0166 2.46325   2
   5  -1  -9 13.5057 3.72306   2
  -5  -1   9 6.26706 9.16321   1
   5  -1  -9 13.5711 5.01389   1
  -5   1   9 11.6246 2.10239   2
   5   1  -9 12.0127 2.57956   2
   5   1  -9 24.1901 3.79003   3
  -5   1   9 18.1468 5.08786   1
   5   1  -9 17.5065 6.12344   1
   4  -1  -9 12.4755 4.09728   3
  -4  -1   9 6.06714 2.55763   2
   4  -1  -9 6.29199 2.20131   2
   4  -1  -9 15.8222 5.45086   1
  -4   1   9 9.69698 2.06179   2
   4   1  -9 7.72858 3.08577   3
   4   1  -9 5.26897 5.32557   1
  -4   1   9 2.42610 4.16968   1
   4   1  -9 7.22505 2.51823   2
  -3  -1   9 839.885 40.0432   1
  -3  -1   9 781.539 29.5941   2
   3  -1  -9 779.958 34.0775   1
   3  -1  -9 762.163 29.9993   2
   3  -1  -9 814.901 30.1722   3
  -3   1   9 798.716 33.1319   1
   3   1  -9 766.564 35.5376   1
   3   1  -9 783.593 29.6689   2
  -3   1   9 788.863 29.4207   2
   3   1  -9 808.369 29.7589   3
  -2  -1   9 767.267 27.8011   2
   2  -1  -9 693.814 28.2608   2
  -2  -1   9 764.578 34.2923   1
   2  -1  -9 698.681 31.9236   1
  -2   1   9 748.398 27.6331   2
   2   1  -9 726.518 27.7556   3
   2   1  -9 769.354 27.8696   2
   2   1  -9 740.031 33.9388   1
   1  -1  -9 43.2385 4.61337   2
   1  -1  -9 62.9944 8.38609   1
  -1  -1   9 55.4661 8.92268   1
  -1  -1   9 56.2455 4.60545   2
   1   1  -9 57.9479 8.47610   1
   1   1  -9 49.5375 4.32938   3
   1   1  -9 54.8307 4.76003   2
  -1   1   9 57.4525 4.30419   2
   0  -1  -9 13.3305 2.66825   2
   0  -1   9 13.6484 2.77433   2
   0  -1  -9 6.65381 4.50848   1
   0  -1   9 23.6026 6.62665   1
   0   1  -9 23.4455 6.50485   1
   0   1  -9 10.4980 2.51259   3
   0   1   9 22.6709 2.92628   2
   0   1  -9 19.0288 3.03166   2
   1  -1   9 18.8440 2.82836   2
  -1  -1  -9 19.0792 3.43394   2
   1  -1   9 23.7576 6.90095   1
  -1  -1  -9 25.3084 5.90473   1
  -1   1  -9 30.1589 7.03052   1
  -1   1  -9 26.8950 3.21210   2
  -1   1  -9 29.6154 3.73288   3
   1   1   9 31.2486 3.10918   2
  -2  -1  -9 1658.44 67.5985   1
  -2  -1  -9 1678.77 62.3609   2
  -2  -1  -9 1701.19 67.5677   1
  -2  -1  -9 1697.37 62.6788   3
   2  -1   9 1707.53 62.3630   2
   2  -1   9 1771.66 68.7062   1
   2   1   9 1764.25 62.4102   2
  -2   1  -9 1711.03 62.4415   2
  -2   1  -9 1702.35 62.0241   3
  -2   1  -9 1739.29 69.0310   1
  -3  -1  -9 26.6025 7.23400   1
   3  -1   9 22.1835 3.26253   2
  -3  -1  -9 28.0286 3.67184   2
  -3  -1  -9 34.8212 4.33244   3
  -3  -1  -9 21.7421 6.18265   1
   3   1   9 41.0282 4.45172   2
  -3   1  -9 30.7082 7.53387   1
  -3   1  -9 28.8756 3.63618   2
  -3   1  -9 33.9352 3.88936   3
  -4  -1  -9 795.876 30.3351   3
  -4  -1  -9 795.503 35.9322   1
  -4  -1  -9 801.847 30.1043   2
   4  -1   9 785.380 29.9207   2
  -4  -1  -9 782.172 35.6604   1
  -4   1  -9 790.096 29.4439   3
  -4   1  -9 810.433 36.5081   1
  -4   1  -9 801.365 30.0479   2
  -4   1  -9 788.626 29.4747   3
   4   1   9 802.421 29.9895   2
  -4   1  -9 801.505 36.5752   1
   5  -1   9 8.76678 2.66141   2
  -5  -1  -9 3.29459 6.11663   1
  -5  -1  -9 5.18902 5.08341   3
  -5  -1  -9 10.7453 3.41853   2
  -5  -1  -9 10.3289 5.68696   1
  -5   1  -9 8.36602 6.50302   1
   5   1   9 4.97787 2.60895   2
  -5   1  -9 9.71744 2.36228   3
  -5   1  -9 8.99909 6.17235   1
  -5   1  -9 8.61242 3.17904   2
  -6  -1  -9 301.451 18.9792   1
  -6  -1  -9 299.283 19.3526   1
   6  -1   9 307.177 12.9231   2
  -6  -1  -9 311.330 13.8163   3
  -6  -1  -9 304.426 13.2181   2
   6   1   9 317.662 13.0140   2
  -6   1  -9 309.588 20.1720   1
  -6   1  -9 302.361 13.1132   2
  -6   1  -9 305.935 12.2716   3
  -6   1  -9 290.254 18.9662   1
   7  -1   9 152.316 7.92196   2
  -7  -1  -9 128.936 16.6245   1
  -7  -1  -9 145.674 8.25729   3
  -7  -1  -9 181.709 15.0499   1
  -7  -1  -9 156.323 8.41947   2
  -7   1  -9 160.149 8.24511   2
  -7   1  -9 149.744 15.1316   1
   7   1   9 159.100 8.03095   2
  -7   1  -9 156.375 13.9965   1
  -7   1  -9 160.018 7.20541   3
  -8  -1  -9 2.83900 5.81897   1
  -8  -1  -9 3.52095 2.96268   3
  -8  -1  -9 5.44278 3.39957   2
  -8  -1  -9 9.71274 6.91077   1
   8  -1   9 6.39004 2.69855   2
  -8   1  -9 5.27015 2.23374   3
  -8   1  -9 6.30545 2.97247   2
  -8   1  -9 3.43086 7.08614   1
  -8   1  -9 2.10060 6.02128   1
  -9  -1  -9 942.801 36.1035   2
  -9  -1  -9 1024.73 44.7945   1
  -9  -1  -9 903.722 43.1879   1
   9  -1   9 1043.36 38.4460   2
  -9   1  -9 938.853 36.0210   2
  -9   1  -9 996.806 44.3831   1
  -9   1  -9 898.889 43.5017   1
  -9   1  -9 935.646 35.3103   3
  10  -1   9 359.262 16.2282   2
 -10  -1  -9 399.622 16.3890   2
 -10  -1  -9 424.242 25.9658   1
 -10  -1  -9 372.607 23.1319   1
 -10   1  -9 401.147 24.1023   1
 -10   1  -9 388.110 23.5654   1
 -10   1  -9 394.937 15.2865   3
 -10   1  -9 381.643 16.0910   2
  11  -1   9 13.0515 2.80048   2
 -11  -1  -9 15.9189 13.1531   1
 -11  -1  -9 6.06597 3.20271   2
 -11   1  -9 6.36674 6.93110   1
 -11   1  -9 11.1237 7.30183   1
 -11   1  -9 12.3179 2.62938   3
 -11   1  -9 5.00488 2.81579   2
 -12  -1  -9 23.8161 3.90805   2
  12  -1   9 20.3027 3.20395   2
 -12  -1  -9 15.7502 9.18628   1
 -12   1  -9 28.4059 3.14283   3
 -12   1  -9 35.2877 4.17179   2
 -12   1  -9 17.0096 9.38210   1
 -13  -1  -9 28.1827 4.28781   2
 -13  -1  -9 27.5819 9.54147   1
 -13   1  -9 28.6150 3.25506   3
 -13   1  -9 21.9941 8.25124   1
 -13   1  -9 20.9129 3.42055   2
 -13   1  -9 27.8757 9.52933   1
 -14  -1  -9 -1.8619 3.42976   2
 -14   1  -9 -2.1294 2.22307   3
 -14   1  -9 1.85660 2.73151   2
 -14   1  -9 -3.5331 8.14107   1
 -14   1  -9 -9.0440 6.16943   1
 -15  -1  -9 5.79510 3.61074   2
 -15  -1  -9 -6.6071 8.93023   1
 -15   1  -9 2.81108 6.87979   1
 -15   1  -9 -0.5523 2.28966   3
 -15   1  -9 -0.9841 8.58676   1
 -15   1  -9 2.81124 2.94344   2
 -16  -1  -9 1.43396 3.27093   2
 -16  -1  -9 2.29649 8.91463   1
 -16   1  -9 -5.2039 7.64840   1
 -16   1  -9 16.4824 11.2887   1
 -16   1  -9 1.80851 3.01666   2
 -16   1  -9 -0.1492 2.76988   3
 -17  -1  -9 19.3045 5.90580   2
 -17  -1  -9 0.89769 11.6136   1
 -17   1  -9 2.77587 9.45648   1
 -17   1  -9 7.73226 3.22192   2
 -17   1  -9 24.4366 10.0846   1
 -18  -1  -9 8.32830 3.93585   2
 -18  -1  -9 11.4229 11.6306   1
 -18   1  -9 -19.742 9.63903   1
 -18   1  -9 8.99633 3.39302   2
 -18   1  -9 13.3888 9.88153   1
 -19  -1  -9 95.0267 17.9472   1
 -19  -1  -9 83.9158 7.43762   2
 -19   1  -9 94.8529 19.2764   1
 -20  -1  -9 46.9575 20.3172   1
 -20  -1  -9 36.5883 15.7922   1
 -20  -1  -9 54.4492 5.51747   2
 -20   1  -9 58.0344 6.10895   2
  22  -2  -9 5.57312 5.52955   3
  22   2  -9 11.6494 10.6599   1
 -22   2   9 16.2742 11.7504   1
  22   2  -9 6.06467 6.34465   3
  21  -2  -9 21.0494 9.03944   1
 -21  -2   9 11.2089 16.4686   1
  21  -2  -9 34.3845 6.79785   3
  21   2  -9 19.5076 10.7446   1
  21   2  -9 53.1924 8.34730   3
 -20  -2   9 7.00877 2.75133   2
 -20  -2   9 -12.718 12.3949   1
  20  -2  -9 -0.7479 7.53237   1
  20  -2  -9 6.93482 7.62192   3
 -20   2   9 12.9784 13.0212   1
  20   2  -9 12.5997 8.64812   1
  20   2  -9 14.1160 6.72092   3
 -19  -2   9 51.7528 4.90647   2
  19  -2  -9 43.1055 7.27204   3
 -19  -2   9 23.0484 12.8674   1
  19  -2  -9 36.9181 9.05033   1
 -19   2   9 34.8932 8.63913   1
  19   2  -9 50.7950 7.96735   3
  19   2  -9 20.4871 10.8653   1
  18  -2  -9 9.03748 6.61682   1
 -18  -2   9 -3.7894 9.52295   1
  18  -2  -9 -1.5011 4.93194   3
 -18  -2   9 2.83330 2.62798   2
 -18   2   9 8.46265 6.46967   1
  18   2  -9 -3.4966 5.29637   3
  18   2  -9 0.75877 7.81926   1
 -17  -2   9 14.4510 3.13585   2
 -17  -2   9 7.57304 9.88472   1
  17  -2  -9 9.46910 6.55892   1
  17  -2  -9 11.2228 5.14260   3
  17   2  -9 18.5015 14.7651   1
  17   2  -9 16.3693 5.86366   3
 -17   2   9 12.7086 6.73747   1
  16  -2  -9 116.522 12.4050   1
  16  -2  -9 110.736 9.66314   3
 -16  -2   9 111.979 7.05829   2
 -16  -2   9 106.602 16.5283   1
  16   2  -9 119.642 16.1111   1
 -16   2   9 98.7621 11.3242   1
  16   2  -9 121.415 10.6539   3
  16   2  -9 108.165 6.47899   2
  15  -2  -9 8.63514 5.12354   3
 -15  -2   9 0.82339 9.83098   1
 -15  -2   9 9.05944 3.09110   2
  15  -2  -9 11.1522 6.05804   1
 -15   2   9 11.9294 5.67497   1
  15   2  -9 6.12296 8.03007   1
  15   2  -9 18.1568 3.00917   2
  15   2  -9 13.6125 5.89281   3
  14  -2  -9 23.0816 7.84908   1
 -14  -2   9 29.1274 11.2747   1
 -14  -2   9 33.9223 3.81497   2
  14  -2  -9 25.9543 5.30287   3
  14   2  -9 35.0622 10.1933   1
  14   2  -9 23.1010 3.18709   2
  14   2  -9 33.1545 5.86442   3
 -14   2   9 27.2058 6.01213   1
  13  -2  -9 64.8889 6.80127   3
 -13  -2   9 43.1553 11.2365   1
  13  -2  -9 48.3654 2.89417   2
 -13  -2   9 56.3901 5.42392   2
  13  -2  -9 49.3659 3.01339   2
 -13   2   9 44.2375 6.73017   1
  13   2  -9 65.7215 7.86408   3
  13   2  -9 46.5974 10.2765   1
  13   2  -9 57.5456 4.97499   2
 -12  -2   9 74.3994 5.90224   2
  12  -2  -9 67.2972 3.94796   2
  12  -2  -9 71.1533 7.54364   3
  12  -2  -9 71.0553 3.80261   2
 -12  -2   9 58.0083 11.9215   1
  12   2  -9 64.9550 5.54634   2
  12   2  -9 56.9115 10.8622   1
 -12   2   9 59.7099 7.97904   1
  12   2  -9 77.9836 7.94986   3
  11  -2  -9 55.7574 6.17865   3
 -11  -2   9 40.1101 10.1290   1
  11  -2  -9 53.5733 11.3929   1
 -11  -2   9 47.7910 4.26111   2
  11  -2  -9 41.2557 3.56880   2
 -11   2   9 39.0875 5.92629   1
  11   2  -9 48.2024 9.89506   1
  11   2  -9 48.9455 5.67020   3
  11   2  -9 41.9822 4.98701   2
  10  -2  -9 20.3709 6.09545   1
 -10  -2   9 16.4507 3.09497   2
 -10  -2   9 3.89920 7.38041   1
  10  -2  -9 18.1014 2.25675   2
  10  -2  -9 2.03051 3.78527   3
  10   2  -9 11.1557 2.86462   2
 -10   2   9 10.6544 4.05899   1
  10   2  -9 15.8731 4.67361   3
  10   2  -9 16.5204 7.92169   1
   9  -2  -9 4.36152 2.11963   2
  -9  -2   9 7.29181 2.92912   2
   9  -2  -9 5.39777 3.94676   3
   9  -2  -9 4.52867 4.96142   1
  -9  -2   9 10.2330 8.12794   1
   9   2  -9 7.82322 4.39187   3
   9   2  -9 -4.0057 5.72712   1
  -9   2   9 5.38670 3.64241   1
   9   2  -9 3.50077 2.94137   2
  -8  -2   9 61.5148 10.9020   1
  -8  -2   9 74.7807 5.90433   2
   8  -2  -9 87.7180 7.31878   3
  -8  -2   9 68.9230 6.29616   3
   8  -2  -9 64.5377 8.73056   1
   8   2  -9 61.4075 10.2892   1
   8   2  -9 72.9844 5.89115   2
   8   2  -9 92.0551 9.19552   3
  -8   2   9 66.3305 6.63777   1
  -7  -2   9 80.9518 11.7707   1
   7  -2  -9 75.0061 6.77349   3
   7  -2  -9 62.7700 8.31911   1
  -7  -2   9 67.2866 5.73393   2
   7  -2  -9 71.6014 4.92641   2
  -7  -2   9 62.3851 5.98581   3
   7   2  -9 60.5781 6.52241   3
   7   2  -9 72.8551 11.1240   1
   7   2  -9 74.8111 5.72796   2
  -6  -2   9 252.437 11.1794   2
   6  -2  -9 259.851 12.1163   3
   6  -2  -9 242.186 14.8900   1
  -6  -2   9 248.277 18.2388   1
  -6  -2   9 250.156 11.3530   3
   6  -2  -9 255.456 11.4020   2
   6   2  -9 256.227 11.2408   2
   6   2  -9 250.764 17.5365   1
   6   2  -9 234.192 11.7587   3
  -5  -2   9 91.3310 6.22288   2
   5  -2  -9 108.606 7.48353   3
   5  -2  -9 95.6343 6.42634   2
  -5  -2   9 100.473 6.36385   3
  -5  -2   9 99.8277 12.2967   1
   5  -2  -9 84.7276 10.9138   1
   5   2  -9 103.515 11.8386   1
   5   2  -9 94.8662 6.35238   2
   5   2  -9 100.120 6.71967   3
  -4  -2   9 82.0537 11.0638   1
  -4  -2   9 78.7269 5.69350   2
   4  -2  -9 75.3336 5.33618   2
   4  -2  -9 74.3153 12.3552   1
  -4  -2   9 71.3965 5.38566   3
   4   2  -9 82.3501 5.81139   3
   4   2  -9 91.8785 5.87484   2
   4   2  -9 72.0365 10.2722   1
  -3  -2   9 -1.8775 2.32004   2
   3  -2  -9 0.70612 3.84504   1
   3  -2  -9 0.28107 2.59700   2
  -3  -2   9 -1.8454 5.61701   1
   3   2  -9 -4.1669 4.79687   1
   3   2  -9 2.04897 2.65644   3
   3   2  -9 -2.3897 2.53037   2
  -2  -2   9 -2.4490 5.43268   1
   2  -2  -9 1.98077 2.73792   2
   2  -2  -9 4.79729 4.35605   1
  -2  -2   9 2.44198 2.45236   2
   2   2  -9 8.00457 6.05990   1
   2   2  -9 7.36414 2.69374   2
   2   2  -9 1.68161 2.35866   3
  -1  -2   9 414.960 16.6836   2
   1  -2  -9 408.097 20.5800   1
   1  -2  -9 420.478 16.6488   2
  -1  -2   9 438.353 23.6274   1
   1   2  -9 409.387 16.2027   3
   1   2  -9 405.157 22.9284   1
   1   2  -9 411.423 16.8737   2
   0  -2  -9 597.638 27.4000   1
   0  -2  -9 597.694 23.3872   2
   0  -2  -9 601.956 27.6191   1
   0  -2   9 623.895 30.4237   1
   0  -2   9 604.159 23.4432   2
   0   2  -9 604.065 22.8346   3
   0   2  -9 621.099 30.2730   1
   0   2  -9 615.044 23.5900   2
  -1  -2  -9 241.209 15.0132   1
  -1  -2  -9 265.548 11.4574   2
   1  -2   9 263.519 11.4110   2
  -1  -2  -9 264.957 15.8686   1
  -1  -2  -9 206.897 11.4843   3
   1  -2   9 273.745 18.4712   1
  -1   2  -9 264.560 18.0591   1
  -1   2  -9 265.275 11.5052   2
  -1   2  -9 262.178 10.4183   3
  -2  -2  -9 463.882 23.1148   1
   2  -2   9 479.565 25.8555   1
  -2  -2  -9 402.631 19.2585   3
  -2  -2  -9 475.612 23.0979   1
   2  -2   9 473.756 18.5966   2
  -2  -2  -9 482.835 18.7443   2
  -2   2  -9 472.814 18.7545   2
  -2   2  -9 494.685 25.4084   1
  -2   2  -9 463.888 17.6066   3
  -3  -2  -9 268.343 16.5252   1
   3  -2   9 269.306 18.0588   1
  -3  -2  -9 262.957 16.7649   1
   3  -2   9 255.533 11.7961   2
  -3  -2  -9 276.772 12.0911   2
  -3   2  -9 261.590 10.4650   3
  -3   2  -9 266.728 18.6948   1
  -3   2  -9 265.730 11.9926   2
  -4  -2  -9 769.634 35.0469   1
   4  -2   9 753.404 29.8280   2
  -4  -2  -9 812.427 30.0736   2
  -4   2  -9 782.180 29.9989   2
  -4   2  -9 819.271 37.3285   1
  -4   2  -9 766.832 28.7114   3
  -4   2  -9 818.880 37.4709   1
  -4   2  -9 792.188 28.7728   3
   5  -2   9 41.0069 3.92601   2
  -5  -2  -9 29.3049 4.06845   2
  -5  -2  -9 41.9542 8.23734   1
  -5  -2  -9 37.5830 7.79606   1
  -5   2  -9 37.6306 8.70852   1
  -5   2  -9 37.1737 2.82511   3
  -5   2  -9 51.9081 4.77161   2
  -5   2  -9 37.4009 2.91264   3
  -5   2  -9 43.1435 9.63736   1
  -6  -2  -9 63.1644 6.26523   2
  -6  -2  -9 64.0708 9.39502   1
  -6  -2  -9 68.7733 10.0468   1
   6  -2   9 69.3319 7.15364   2
  -6   2  -9 89.5463 11.3240   1
  -6   2  -9 74.0976 3.55232   3
  -6   2  -9 68.6358 3.45697   3
  -6   2  -9 58.2728 10.0689   1
  -6   2  -9 63.0820 5.93039   2
   7  -2   9 161.409 10.1131   2
  -7  -2  -9 166.011 14.8278   1
  -7  -2  -9 155.112 9.09792   2
  -7   2  -9 166.608 14.7168   1
  -7   2  -9 171.400 6.84597   3
  -7   2  -9 156.434 14.7333   1
  -7   2  -9 159.338 6.40668   3
  -7   2  -9 159.403 8.77609   2
  -8  -2  -9 555.857 28.8394   1
   8  -2   9 559.811 21.8047   2
  -8  -2  -9 550.187 22.1064   2
  -8   2  -9 518.333 34.1770   1
  -8   2  -9 579.194 30.3433   1
  -8   2  -9 548.379 21.9719   2
  -9  -2  -9 461.164 18.8369   2
   9  -2   9 422.049 18.1850   2
  -9  -2  -9 453.100 26.4577   1
  -9   2  -9 459.171 26.3158   1
  -9   2  -9 471.128 27.2330   1
  -9   2  -9 459.832 18.5510   2
 -10  -2  -9 4.51432 7.68896   1
 -10  -2  -9 2.66761 3.78881   2
  10  -2   9 2.27424 2.83872   2
 -10   2  -9 -3.5838 6.11172   1
 -10   2  -9 11.4752 7.66035   1
 -10   2  -9 4.71544 2.99499   2
 -11  -2  -9 15.3627 3.78886   2
 -11  -2  -9 11.8365 7.08879   1
 -11   2  -9 13.0603 8.69645   1
 -11   2  -9 11.5830 3.45338   2
 -11   2  -9 -0.5482 6.02581   1
 -12  -2  -9 29.8025 9.84788   1
 -12  -2  -9 36.7916 4.40110   2
 -12   2  -9 35.3904 9.62372   1
 -12   2  -9 36.1295 4.22199   2
 -12   2  -9 49.0918 10.1324   1
 -13  -2  -9 -1.7418 7.65957   1
 -13  -2  -9 6.05444 3.52159   2
 -13   2  -9 -1.6454 2.88696   2
 -13   2  -9 -5.2830 7.16656   1
 -13   2  -9 0.51474 7.33765   1
 -14  -2  -9 186.774 19.8218   1
 -14  -2  -9 167.178 14.1541   2
 -14   2  -9 189.275 9.76627   2
 -14   2  -9 188.596 17.1463   1
 -14   2  -9 216.924 18.7442   1
 -15  -2  -9 0.91408 9.73152   1
 -15  -2  -9 4.87216 3.66753   2
 -15   2  -9 3.34940 3.03693   2
 -15   2  -9 18.7148 10.2337   1
 -16  -2  -9 9.47267 16.5486   1
 -16  -2  -9 -2.4006 3.61567   2
 -16   2  -9 7.92241 8.97638   1
 -16   2  -9 4.69990 3.04486   2
 -16   2  -9 -4.9398 8.29663   1
 -17  -2  -9 86.0787 16.6792   1
 -17  -2  -9 89.3922 8.03452   2
 -17   2  -9 81.3063 14.6958   1
 -17   2  -9 89.6547 6.88753   2
 -18  -2  -9 35.2303 22.1372   1
 -18  -2  -9 17.7685 4.48143   2
 -18   2  -9 10.7313 4.28781   2
 -18   2  -9 18.2201 13.6645   1
 -19  -2  -9 34.2353 5.19487   2
 -19   2  -9 45.1552 5.03803   2
  21  -3  -9 4.45750 5.10804   3
 -21  -3   9 -1.5814 21.5204   1
  21   3  -9 4.78634 6.37419   3
  20  -3  -9 6.07221 5.30768   3
 -20  -3   9 19.3647 17.4879   1
  20   3  -9 20.0803 6.60011   3
  20   3  -9 7.44616 9.64972   1
  19  -3  -9 -3.1043 6.52346   3
 -19  -3   9 -0.7006 13.9772   1
  19  -3  -9 1.43294 7.09808   1
  19   3  -9 0.61926 5.44673   3
  19   3  -9 8.84076 15.1668   1
 -18  -3   9 22.0601 12.5341   1
  18  -3  -9 5.39229 4.61163   3
  18  -3  -9 12.1024 6.74044   1
  18   3  -9 8.44798 5.61475   3
  18   3  -9 -12.238 7.15652   1
  17  -3  -9 4.70828 5.31830   3
  17  -3  -9 11.8787 6.23384   1
 -17  -3   9 -2.7784 11.0432   1
  17   3  -9 12.0605 9.21972   1
  17   3  -9 5.32175 9.40609   3
 -16  -3   9 14.8437 10.1899   1
  16  -3  -9 0.03585 4.42485   3
  16  -3  -9 13.5767 5.68011   1
  16   3  -9 1.41099 4.81701   3
  16   3  -9 3.45861 2.78208   2
  16   3  -9 3.34377 7.89863   1
  15  -3  -9 7.05989 5.21814   1
 -15  -3   9 19.7727 10.6184   1
  15  -3  -9 9.40751 5.03573   3
  15   3  -9 5.56609 2.99028   2
  15   3  -9 10.0287 7.94866   1
  15   3  -9 7.52037 5.28835   3
 -14  -3   9 4.65669 8.85758   1
  14  -3  -9 -0.5826 4.24143   3
  14  -3  -9 12.1926 5.30895   1
  14   3  -9 -3.9852 7.98310   1
  14   3  -9 0.55881 5.14035   3
  14   3  -9 8.36866 3.36237   2
  13  -3  -9 0.78063 1.58453   2
  13  -3  -9 4.03475 4.56252   1
  13  -3  -9 3.16213 4.57495   3
  13  -3  -9 1.75945 1.46784   2
  13   3  -9 -5.0454 2.42593   2
  13   3  -9 -3.1506 4.30204   3
  13   3  -9 7.91406 7.56018   1
  12  -3  -9 8.47631 2.02156   2
  12  -3  -9 8.31095 1.79626   2
  12  -3  -9 7.61790 4.57185   1
  12  -3  -9 8.80437 4.26916   3
 -12  -3   9 8.90999 9.26652   1
  12   3  -9 3.42385 4.27068   3
  12   3  -9 7.68927 7.14199   1
  12   3  -9 11.0954 3.57417   2
  11  -3  -9 3.64459 4.39184   3
  11  -3  -9 4.95450 4.21605   1
  11  -3  -9 4.55167 2.00769   2
 -11  -3   9 3.54385 3.21156   2
 -11  -3   9 -4.1977 7.61973   1
  11   3  -9 4.58962 3.04075   2
  11   3  -9 7.19088 4.49092   3
  11   3  -9 0.34631 6.44306   1
  10  -3  -9 16.5106 2.88883   2
  10  -3  -9 23.8445 5.49373   1
  10  -3  -9 16.9162 2.44107   2
  10  -3  -9 15.2115 4.58801   3
 -10  -3   9 11.7933 3.27340   2
 -10  -3   9 16.7136 8.50554   1
  10   3  -9 9.07816 3.08009   2
  10   3  -9 25.6541 5.02816   3
  10   3  -9 13.9486 7.45898   1
  -9  -3   9 -4.4015 6.77480   1
  -9  -3   9 0.09148 2.83023   2
   9  -3  -9 -0.1233 3.82505   3
   9  -3  -9 1.58841 2.04575   2
   9  -3  -9 -2.5785 3.70812   1
   9  -3  -9 -0.6270 2.20746   2
   9   3  -9 -0.0207 7.35387   1
   9   3  -9 0.03470 2.70819   2
   9   3  -9 -0.4723 3.62263   3
   8  -3  -9 132.337 6.82789   2
   8  -3  -9 121.710 9.67331   1
   8  -3  -9 134.294 6.96350   2
  -8  -3   9 132.563 8.20701   2
  -8  -3   9 119.407 14.7375   1
   8  -3  -9 139.010 9.26302   3
   8   3  -9 108.907 21.1558   1
   8   3  -9 119.488 7.96805   2
   8   3  -9 155.598 8.80353   3
   7  -3  -9 36.9559 5.76188   1
  -7  -3   9 32.0949 3.93752   2
  -7  -3   9 30.4786 9.52449   1
  -7  -3   9 41.9714 5.31727   3
   7  -3  -9 33.3449 3.48556   2
   7  -3  -9 39.9945 5.45274   3
   7   3  -9 44.7709 4.79038   2
   7   3  -9 36.0169 8.96624   1
   7   3  -9 34.3114 4.52051   3
   6  -3  -9 43.8307 4.03260   2
  -6  -3   9 35.6834 4.14426   3
  -6  -3   9 46.4796 4.76618   2
  -6  -3   9 44.6907 10.4031   1
   6  -3  -9 41.5690 5.25432   3
   6  -3  -9 48.0279 6.17120   1
   6   3  -9 45.3953 4.87513   2
   6   3  -9 48.5421 4.82314   3
   6   3  -9 37.5789 8.96874   1
  -5  -3   9 9.47786 3.13100   2
  -5  -3   9 10.3670 7.28604   1
  -5  -3   9 10.0917 3.02848   3
   5  -3  -9 14.4776 3.12600   2
   5  -3  -9 10.2297 4.14215   1
   5   3  -9 6.93854 4.34819   3
   5   3  -9 9.76225 3.26384   2
   5   3  -9 5.62150 6.86687   1
   4  -3  -9 17.0755 3.23094   2
   4  -3  -9 5.23914 3.93716   1
  -4  -3   9 11.3063 3.31721   2
  -4  -3   9 15.6109 3.02213   3
  -4  -3   9 14.9451 8.45562   1
   4   3  -9 10.3832 6.41817   1
   4   3  -9 20.8695 3.58979   3
   4   3  -9 15.7521 4.01143   2
  -3  -3   9 -11.874 5.93640   1
  -3  -3   9 -1.7014 2.96704   2
  -3  -3   9 -3.8967 2.26847   3
   3  -3  -9 2.82889 3.66724   1
   3  -3  -9 -0.0449 3.04824   2
   3  -3  -9 -3.5764 3.38436   1
   3   3  -9 -3.9163 3.00414   2
   3   3  -9 2.22311 2.60316   3
   3   3  -9 -0.1186 5.61014   1
  -2  -3   9 67.5624 11.0941   1
   2  -3  -9 67.4925 7.85864   1
  -2  -3   9 72.7606 4.86246   3
   2  -3  -9 69.0945 6.14144   2
  -2  -3   9 65.1313 6.18648   2
   2  -3  -9 65.9389 7.60456   1
   2   3  -9 62.7723 10.6739   1
   2   3  -9 67.2663 6.37638   2
   2   3  -9 69.4209 5.15116   3
   1  -3  -9 80.3041 8.22670   1
  -1  -3   9 89.8061 12.3690   1
   1  -3  -9 99.7120 8.95014   1
   1  -3  -9 73.9663 6.44280   2
  -1  -3   9 82.0273 6.53244   2
   1   3  -9 73.6796 5.10912   3
   1   3  -9 72.4166 10.6140   1
   1   3  -9 74.1658 6.68805   2
   0  -3  -9 109.500 6.96377   2
   0  -3   9 105.216 6.97963   2
   0  -3  -9 90.2015 9.35480   1
   0  -3   9 104.994 13.7808   1
   0  -3  -9 82.3639 8.68013   1
   0   3  -9 99.4553 13.4314   1
   0   3  -9 89.9340 5.27912   3
   0   3  -9 97.6005 7.24630   2
   1  -3   9 75.4829 11.6813   1
   1  -3   9 65.1773 5.71194   2
  -1  -3  -9 53.6732 7.34414   1
  -1  -3  -9 65.4527 8.62634   1
  -1  -3  -9 52.4946 6.03743   2
  -1   3  -9 55.2715 3.77039   3
  -1   3  -9 47.6802 4.78720   2
  -2  -3  -9 93.3567 9.83957   1
   2  -3   9 99.6767 13.6803   1
  -2  -3  -9 97.1385 7.03394   2
  -2  -3  -9 90.4255 9.88305   1
   2  -3   9 91.0658 6.66343   2
  -2   3  -9 85.4199 13.5284   1
  -2   3  -9 93.2816 6.99729   2
  -2   3  -9 84.6014 4.30862   3
  -3  -3  -9 10.1417 5.62512   1
  -3  -3  -9 12.4892 6.63867   1
  -3  -3  -9 7.21782 3.42251   2
   3  -3   9 3.29150 8.38479   1
   3  -3   9 10.4093 3.04249   2
  -3   3  -9 10.6898 6.51054   1
  -3   3  -9 22.8216 3.95707   2
  -4  -3  -9 16.7565 6.01846   1
   4  -3   9 9.85432 3.57673   2
  -4  -3  -9 13.0386 5.83449   1
   4  -3   9 19.3603 9.17994   1
  -4  -3  -9 10.8777 3.66569   2
  -4   3  -9 0.01710 6.55313   1
  -4   3  -9 15.9106 3.47180   2
  -4   3  -9 11.4800 6.90495   1
   5  -3   9 83.2381 9.83518   2
  -5  -3  -9 127.073 8.18108   2
  -5  -3  -9 111.145 11.6131   1
  -5   3  -9 128.078 13.9009   1
  -5   3  -9 100.802 13.2340   1
  -5   3  -9 112.475 7.70833   2
  -6  -3  -9 390.391 16.8387   2
  -6  -3  -9 411.096 22.8198   1
  -6   3  -9 391.147 16.6652   2
  -6   3  -9 376.413 23.6362   1
  -6   3  -9 380.297 23.2074   1
  -7  -3  -9 -5.5341 5.71560   1
  -7  -3  -9 4.39311 4.07131   2
  -7   3  -9 -4.0880 6.54700   1
  -7   3  -9 -0.6644 2.92886   2
  -7   3  -9 2.50098 6.89235   1
  -8  -3  -9 377.267 17.0209   2
  -8  -3  -9 401.842 23.7355   1
  -8   3  -9 394.063 16.8623   2
  -8   3  -9 411.022 24.7745   1
  -8   3  -9 405.579 24.0111   1
  -9  -3  -9 8.45715 4.25110   2
  -9  -3  -9 4.22572 7.21587   1
  -9   3  -9 11.6452 3.44165   2
  -9   3  -9 7.97855 7.50137   1
  -9   3  -9 10.0023 7.88343   1
 -10  -3  -9 45.9695 6.06481   2
 -10  -3  -9 42.0692 10.3777   1
 -10   3  -9 43.3578 10.0963   1
 -10   3  -9 35.7084 4.22173   2
 -10   3  -9 39.9579 9.35426   1
 -11  -3  -9 1.90708 4.63985   2
 -11  -3  -9 5.34335 8.28363   1
 -11   3  -9 7.42790 7.31565   1
 -11   3  -9 6.03210 3.36194   2
 -11   3  -9 7.25335 7.60712   1
 -12  -3  -9 15.3445 4.25626   2
 -12   3  -9 3.41741 8.48254   1
 -12   3  -9 17.9958 4.02966   2
 -13  -3  -9 13.3969 9.66894   1
 -13  -3  -9 12.0765 4.25731   2
 -13   3  -9 13.0045 3.55300   2
 -13   3  -9 13.8515 9.30797   1
 -13   3  -9 25.3419 8.58973   1
 -14  -3  -9 99.9941 8.68663   2
 -14  -3  -9 82.1159 16.0713   1
 -14   3  -9 105.275 17.9365   1
 -14   3  -9 91.9645 7.52283   2
 -14   3  -9 92.8484 14.4321   1
 -15  -3  -9 119.433 9.58115   2
 -15   3  -9 116.572 9.22187   2
 -15   3  -9 140.018 18.6421   1
 -16  -3  -9 64.0753 6.78273   2
 -16   3  -9 47.0879 14.7053   1
 -16   3  -9 50.7308 7.89565   2
 -17  -3  -9 40.4295 6.00198   2
 -17   3  -9 41.5500 4.90404   2
 -18  -3  -9 0.69789 4.02535   2
 -18   3  -9 6.30558 3.48270   2
  19   4  -9 10.7614 5.96546   3
  18  -4  -9 1.09069 6.42069   1
 -18  -4   9 6.16421 14.0797   1
  18  -4  -9 -2.2977 4.33502   3
  18   4  -9 -0.3450 5.18197   3
 -17  -4   9 3.82452 13.8143   1
  17  -4  -9 2.76358 6.33569   3
  17  -4  -9 6.19418 5.68938   1
  17   4  -9 5.56288 6.23091   3
 -16  -4   9 29.6449 22.5278   1
  16  -4  -9 1.82516 4.61117   3
  16  -4  -9 -6.9371 4.83148   1
  16   4  -9 0.73668 4.83220   3
 -15  -4   9 23.6296 11.4269   1
  15  -4  -9 -1.8383 4.52707   3
  15  -4  -9 1.51551 4.60525   1
  15   4  -9 -2.1550 3.04705   2
  15   4  -9 -0.4516 8.62913   1
 -14  -4   9 12.7654 11.1986   1
  14  -4  -9 -0.6299 1.53525   2
  14  -4  -9 -0.3664 1.45142   2
  14  -4  -9 4.52484 4.62252   1
  14  -4  -9 -0.3444 4.73143   3
  14   4  -9 -0.5315 4.54735   3
  14   4  -9 6.71607 7.96290   1
  14   4  -9 0.39011 3.01756   2
  13  -4  -9 29.3235 3.39967   2
  13  -4  -9 23.8115 5.18771   3
 -13  -4   9 25.9057 12.6577   1
  13  -4  -9 27.3866 5.30728   1
  13   4  -9 35.2438 6.38615   3
  13   4  -9 14.1830 3.82018   2
  12  -4  -9 16.6855 4.30604   1
  12  -4  -9 15.8866 2.52774   2
 -12  -4   9 8.13143 10.7045   1
  12  -4  -9 23.6222 5.59177   3
  12  -4  -9 13.6949 2.64263   2
  12   4  -9 13.6780 5.49864   2
  12   4  -9 7.61091 4.42743   3
  12   4  -9 5.31405 7.99631   1
 -11  -4   9 6.66984 8.97398   1
  11  -4  -9 6.68623 4.35545   3
  11  -4  -9 6.97127 2.56943   2
  11  -4  -9 4.43715 3.39394   1
  11  -4  -9 5.72727 2.29043   2
  11   4  -9 5.22623 7.79797   1
  11   4  -9 2.08335 6.03223   2
  11   4  -9 5.75325 3.99341   3
  10  -4  -9 2.38665 2.22896   2
  10  -4  -9 -3.8888 3.94521   3
 -10  -4   9 -0.3894 8.25745   1
  10  -4  -9 1.87076 2.50999   2
  10  -4  -9 -2.9063 2.69386   1
  10   4  -9 2.69097 3.89670   3
  10   4  -9 5.32784 4.02481   2
  10   4  -9 7.53454 7.95294   1
  -9  -4   9 11.7465 9.04099   1
   9  -4  -9 9.73606 2.86605   1
   9  -4  -9 15.0905 2.84356   2
   9  -4  -9 4.50703 2.71787   2
   9  -4  -9 10.8161 4.99716   3
   9   4  -9 10.6491 7.03780   1
   9   4  -9 9.43261 3.86800   2
   9   4  -9 5.36690 3.89262   3
   8  -4  -9 2.10630 2.33580   1
   8  -4  -9 0.93681 4.32920   3
   8  -4  -9 5.13351 2.93101   2
  -8  -4   9 4.52802 8.42964   1
   8  -4  -9 8.46879 2.56281   2
   8   4  -9 1.49497 6.61228   1
   8   4  -9 0.89142 3.47514   3
   8   4  -9 1.85754 3.24221   2
   7  -4  -9 18.1789 4.57597   2
   7  -4  -9 13.6033 3.30433   2
   7  -4  -9 13.4905 2.52762   1
   7  -4  -9 23.1461 5.66987   3
  -7  -4   9 13.4940 9.15008   1
   7   4  -9 21.7180 4.68476   2
   7   4  -9 17.0646 3.82245   3
   7   4  -9 14.3094 8.18658   1
   6  -4  -9 1.67914 2.68078   2
   6  -4  -9 3.23750 3.16088   2
  -6  -4   9 -0.5076 8.96629   1
   6  -4  -9 -0.8575 2.12560   1
   6   4  -9 -1.5811 6.85990   1
   6   4  -9 -3.7468 3.38654   3
   6   4  -9 1.30839 3.62279   2
   5  -4  -9 115.529 6.69861   1
   5  -4  -9 128.477 6.77499   1
  -5  -4   9 137.977 17.6142   1
   5  -4  -9 132.251 8.14481   2
   5  -4  -9 116.392 7.49658   2
  -5  -4   9 102.333 7.28701   3
   5   4  -9 137.725 15.3486   1
   5   4  -9 122.659 8.71926   2
   4  -4  -9 25.3140 5.67973   1
   4  -4  -9 18.2637 3.60436   2
   4  -4  -9 16.6070 3.78585   2
   4  -4  -9 22.3260 3.60168   1
  -4  -4   9 33.7337 9.90074   1
   4   4  -9 22.4527 4.60546   2
   4   4  -9 21.9398 8.76127   1
   3  -4  -9 28.6195 4.32487   1
  -3  -4   9 28.1610 10.3450   1
  -3  -4   9 36.1341 4.45295   3
   3  -4  -9 29.8944 4.81346   2
   3  -4  -9 39.2315 7.18193   1
   3   4  -9 32.0457 3.73469   3
   3   4  -9 37.4896 9.52600   1
   3   4  -9 34.9690 5.24538   2
  -2  -4   9 70.9569 12.7058   1
   2  -4  -9 79.5338 6.99997   1
  -2  -4   9 74.7856 5.19147   3
   2  -4  -9 77.8630 7.21507   1
   2  -4  -9 86.3200 7.13836   2
   2   4  -9 76.5951 11.7688   1
   2   4  -9 83.3371 7.65266   2
   2   4  -9 78.6864 5.23420   3
   1  -4  -9 50.6322 6.51126   1
   1  -4  -9 47.6211 5.17756   2
  -1  -4   9 53.3960 10.3304   1
   1  -4  -9 44.5509 5.98451   1
   1   4  -9 36.2957 3.91279   3
   1   4  -9 43.0040 5.51608   2
   1   4  -9 56.9461 10.0042   1
   0  -4  -9 15.7211 4.82520   1
   0  -4  -9 22.3839 4.39785   2
   0  -4   9 18.0181 9.04442   1
   0  -4  -9 7.97225 4.27741   1
   0   4  -9 14.5168 2.29395   3
   0   4  -9 23.7021 4.33446   2
   0   4  -9 9.85126 6.98013   1
   1  -4   9 -0.6581 6.66754   1
  -1  -4  -9 2.60230 4.06261   1
  -1  -4  -9 3.00972 4.41530   1
  -1  -4  -9 4.96877 3.92448   2
  -1   4  -9 1.35601 1.48020   3
  -1   4  -9 -6.4208 5.31483   1
  -1   4  -9 -2.6131 3.32734   2
  -2  -4  -9 37.5261 6.31962   1
  -2  -4  -9 29.2436 4.87197   2
  -2  -4  -9 38.1515 6.44579   1
   2  -4   9 30.4856 9.37350   1
  -2   4  -9 37.3032 5.06271   2
  -2   4  -9 17.8636 7.59749   1
  -3  -4  -9 29.2085 4.80999   2
  -3  -4  -9 31.5452 6.61599   1
   3  -4   9 34.1511 9.68826   1
  -3  -4  -9 23.4167 6.28117   1
  -3   4  -9 20.0246 4.31331   2
  -3   4  -9 19.9129 6.28715   1
  -3   4  -9 35.1343 8.45873   1
  -4  -4  -9 90.0070 10.5807   1
  -4  -4  -9 99.5350 7.99228   2
   4  -4   9 95.9165 12.7933   1
  -4  -4  -9 112.206 10.9361   1
  -4   4  -9 88.4203 7.90427   2
  -4   4  -9 86.2081 11.0294   1
  -4   4  -9 77.0485 11.3851   1
  -5  -4  -9 6.82863 5.32093   2
  -5  -4  -9 10.7968 6.06349   1
  -5   4  -9 7.81268 7.03693   1
  -5   4  -9 9.58290 3.87968   2
  -5   4  -9 23.3079 7.04512   1
  -6  -4  -9 9.89061 4.99326   2
  -6   4  -9 11.1754 4.04279   2
  -6   4  -9 23.2692 7.50493   1
  -6   4  -9 12.1128 7.09319   1
  -7  -4  -9 14.4881 4.75679   2
  -7  -4  -9 7.87556 7.30201   1
  -7   4  -9 16.0177 13.1567   1
  -7   4  -9 30.3136 8.25957   1
  -7   4  -9 15.7145 4.47565   2
  -8  -4  -9 -0.0091 6.97988   1
  -8  -4  -9 1.44123 4.27489   2
  -8   4  -9 7.83735 4.88853   2
  -8   4  -9 6.23722 7.04366   1
  -8   4  -9 9.25103 8.16313   1
  -9  -4  -9 39.2095 10.5801   1
  -9  -4  -9 58.4702 6.68478   2
  -9   4  -9 52.4826 10.7645   1
  -9   4  -9 39.4645 9.79265   1
 -10  -4  -9 1.32361 4.60426   2
 -10   4  -9 -3.1891 3.71958   2
 -10   4  -9 5.76544 8.18144   1
 -10   4  -9 -5.3748 8.76848   1
 -11  -4  -9 2.19219 4.34430   2
 -11   4  -9 8.89671 9.05666   1
 -11   4  -9 3.16783 3.80751   2
 -12  -4  -9 -3.9233 4.28109   2
 -12   4  -9 4.28479 4.09022   2
 -12   4  -9 6.34153 9.56063   1
 -13  -4  -9 130.807 10.0025   2
 -13   4  -9 106.142 8.75645   2
 -14  -4  -9 12.9395 4.91663   2
 -14   4  -9 20.5647 4.42611   2
 -15  -4  -9 130.605 10.5777   2
 -15   4  -9 118.501 8.94764   2
  15  -5  -9 -2.3556 4.37011   3
  15   5  -9 10.9020 5.46682   3
  14  -5  -9 7.06712 2.25903   2
  14   5  -9 4.20056 4.32915   2
  14   5  -9 8.11437 5.62274   3
  13  -5  -9 3.32914 4.93333   3
  13  -5  -9 4.41050 2.43598   2
  13   5  -9 -6.5055 4.56370   3
  13   5  -9 -2.0294 3.37244   2
  12  -5  -9 -0.6281 4.55513   3
  12  -5  -9 0.55724 2.56436   2
  12   5  -9 -4.4013 3.80960   2
  12   5  -9 -4.0454 5.06395   3
  11  -5  -9 14.7290 5.32791   3
  11  -5  -9 15.7151 3.40719   2
  11   5  -9 9.91782 4.59331   2
  11   5  -9 23.3617 5.57057   3
  10  -5  -9 15.7117 3.65259   2
  10  -5  -9 27.6198 5.61101   3
  10   5  -9 18.5499 4.80442   3
  10   5  -9 31.6905 5.39757   2
   9  -5  -9 26.3924 4.00642   2
   9  -5  -9 38.7633 6.54248   3
  -9  -5   9 13.3687 10.7310   1
   9   5  -9 19.5884 4.77446   2
   9   5  -9 36.1037 5.37391   3
   8  -5  -9 -2.8491 3.17808   2
  -8  -5   9 10.2682 9.54819   1
   8  -5  -9 3.01409 4.91558   3
   8   5  -9 -3.0523 4.56685   2
   8   5  -9 2.24312 3.77087   3
   7  -5  -9 1.55440 3.62903   2
   7  -5  -9 3.39220 5.36026   3
  -7  -5   9 9.99333 9.18337   1
   7   5  -9 0.69637 3.69227   3
   7   5  -9 0.78909 11.1459   1
   7   5  -9 2.79513 4.36762   2
   6  -5  -9 59.2509 5.78737   2
   6  -5  -9 58.1282 7.16453   3
  -6  -5   9 53.5509 14.1508   1
   6   5  -9 45.4465 10.1967   1
   6   5  -9 34.1610 5.34402   2
   6   5  -9 51.0100 6.19479   3
   5  -5  -9 -0.8809 3.71201   2
  -5  -5   9 -4.5116 8.00689   1
   5   5  -9 -1.0482 3.05461   3
   5   5  -9 -9.1724 6.66885   1
   5   5  -9 -2.5586 3.57904   2
  -4  -5   9 39.9204 12.0831   1
   4  -5  -9 18.9819 4.70096   2
  -4  -5   9 23.2384 3.93232   3
   4   5  -9 18.0724 7.95232   1
   4   5  -9 24.1114 3.97692   3
   4   5  -9 14.9390 4.32538   2
  -3  -5   9 7.41905 9.63611   1
   3   5  -9 1.84286 3.71505   2
   3   5  -9 13.7008 7.28542   1
  -2  -5   9 44.7683 12.0532   1
  -2  -5   9 29.5683 3.65906   3
   2  -5  -9 44.8327 5.40328   2
   2   5  -9 42.6228 4.28286   3
   2   5  -9 31.7566 5.40050   2
   2   5  -9 33.9824 8.55968   1
   1  -5  -9 15.9075 4.28043   2
  -1  -5   9 10.4276 9.43644   1
   1   5  -9 17.8615 8.03674   1
   1   5  -9 25.6959 5.32405   2
   1   5  -9 21.2901 2.76422   3
   0  -5  -9 -1.0986 2.91582   1
   0  -5  -9 -0.3789 4.09017   2
   0  -5  -9 4.36124 3.12930   1
   0  -5   9 -0.7631 7.58571   1
   0   5  -9 -6.0055 6.68053   1
   0   5  -9 -0.6172 4.00677   2
  -1  -5  -9 47.3258 6.14129   1
   1  -5   9 71.3441 12.6252   1
  -1  -5  -9 43.2369 5.79768   1
  -1  -5  -9 50.2631 5.82586   2
  -1   5  -9 35.2719 5.24349   2
  -1   5  -9 51.4422 9.78819   1
  -2  -5  -9 39.1658 5.39458   2
   2  -5   9 28.6592 10.6607   1
  -2  -5  -9 43.5053 6.63251   1
  -2  -5  -9 37.6323 6.26871   1
  -2   5  -9 44.8693 6.07465   2
  -2   5  -9 46.4986 9.44027   1
  -2   5  -9 60.1717 14.6452   1
  -3  -5  -9 7.23586 4.62048   2
  -3  -5  -9 -6.6187 4.36199   1
   3  -5   9 6.34824 8.86057   1
  -3   5  -9 5.25912 7.56021   1
  -3   5  -9 0.90366 3.87674   2
  -4  -5  -9 32.7788 5.97801   2
  -4   5  -9 18.8506 8.59164   1
  -4   5  -9 23.5278 4.52669   2
  -5  -5  -9 -1.5694 5.68720   1
  -5  -5  -9 4.04869 4.76498   2
  -5   5  -9 17.5872 7.98622   1
  -5   5  -9 10.6501 4.56487   2
  -6  -5  -9 3.11304 4.66561   2
  -6   5  -9 9.74531 8.08355   1
  -6   5  -9 1.16227 4.35611   2
  -7  -5  -9 6.99646 5.27235   2
  -7   5  -9 13.3694 4.87507   2
  -7   5  -9 25.8455 9.10039   1
  -8  -5  -9 4.90366 5.05672   2
  -8   5  -9 1.93510 4.25942   2
  -8   5  -9 -2.3053 9.12142   1
  -9  -5  -9 3.43047 4.84962   2
  -9   5  -9 0.37691 4.21568   2
  -9   5  -9 -11.446 9.49780   1
 -10  -5  -9 4.56448 5.47430   2
 -10   5  -9 1.32310 11.2279   1
 -10   5  -9 0.15915 3.65248   2
 -11  -5  -9 -5.0412 7.32441   2
 -11   5  -9 0.67467 3.81347   2
 -12  -5  -9 3.54306 5.56252   2
 -12   5  -9 3.24289 3.95949   2
   9  -6  -9 -0.0216 3.50597   2
   9   6  -9 -1.2766 4.53468   2
   8  -6  -9 11.2008 5.96530   3
   8  -6  -9 10.8616 4.03351   2
   8   6  -9 20.0822 6.15153   2
   8   6  -9 11.5660 4.24407   3
   7  -6  -9 2.99442 5.04428   3
   7  -6  -9 7.62981 3.97062   2
   7   6  -9 4.61348 3.65280   3
   7   6  -9 0.33248 6.48289   2
   6  -6  -9 -1.9264 3.59003   2
   6  -6  -9 -0.4889 4.77767   3
   6   6  -9 -6.6921 9.62306   2
   6   6  -9 2.87453 3.46599   3
   5  -6  -9 1.66089 4.26654   2
   5   6  -9 -0.6268 3.21417   3
   5   6  -9 0.34594 6.17997   2
   4  -6  -9 9.45988 4.41101   2
   4   6  -9 0.02452 5.10045   2
   4   6  -9 0.25239 2.91430   3
   3  -6  -9 -0.9049 4.47883   2
   3   6  -9 -0.7307 4.07537   2
   2  -6  -9 -6.2426 3.93304   2
   2   6  -9 1.64833 4.70659   2
   1  -6  -9 -2.1701 4.56112   2
   1   6  -9 -3.6522 10.2900   1
   1   6  -9 -1.7725 4.77934   2
   0  -6  -9 6.22119 5.31644   2
   0   6  -9 6.07258 10.3748   1
   0   6  -9 7.78865 4.49907   2
  -1  -6  -9 9.88676 5.53744   2
  -1   6  -9 16.3366 5.40057   2
  -2  -6  -9 -6.5407 4.78343   2
  -2   6  -9 -0.0756 4.33685   2
  -3  -6  -9 8.37022 5.60908   2
  -3   6  -9 20.1994 13.1080   1
  -3   6  -9 0.51340 4.28231   2
  -4  -6  -9 18.0254 6.42092   1
  -4   6  -9 -2.7950 5.02926   2
  -4   6  -9 -3.0343 15.5075   1
  -5  -6  -9 -0.6500 5.93957   2
  -5   6  -9 -1.0959 6.10577   2
  -6   6  -9 -0.8976 9.23991   2
  23   0 -10 -3.8153 5.87120   3
  22   0 -10 -0.4525 6.13998   3
  22   0 -10 4.42589 9.71359   1
  21   0 -10 10.8886 6.68851   3
  21   0 -10 26.6417 9.48221   1
  20   0 -10 21.7790 9.47987   1
  20   0 -10 33.9327 7.25945   3
  19   0 -10 36.6927 10.1121   1
  19   0 -10 28.2677 6.69304   3
  18   0 -10 29.5201 7.19046   3
  18   0 -10 23.0217 9.26946   1
  17   0 -10 222.247 13.0466   3
  17   0 -10 150.636 17.7999   1
  16   0 -10 11.6908 5.17524   3
  16   0 -10 10.0156 7.21901   1
 -16   0  10 8.38674 1.65238   2
  16   0 -10 6.83253 1.45139   2
  15   0 -10 39.8361 9.64486   1
  15   0 -10 48.8145 6.40095   3
  15   0 -10 40.8733 3.26423   2
 -15   0  10 48.4667 3.44754   2
 -15   0  10 29.1731 14.6962   1
 -14   0  10 7.18693 12.6506   1
  14   0 -10 -0.7176 4.65288   3
  14   0 -10 -0.2142 1.69071   2
 -14   0  10 -0.7265 1.79206   2
 -13   0  10 290.265 34.8403   1
  13   0 -10 328.043 23.0801   1
  13   0 -10 355.349 14.5195   2
 -13   0  10 408.179 14.6822   2
  13   0 -10 403.604 17.5160   3
  12   0 -10 265.297 10.5193   2
  12   0 -10 269.766 13.3460   3
  12   0 -10 230.182 18.3547   1
 -12   0  10 182.714 22.4891   1
 -12   0  10 244.336 12.3136   2
  11   0 -10 351.134 22.7460   1
  11   0 -10 413.684 17.2797   3
 -11   0  10 335.427 25.7085   1
 -11   0  10 392.995 14.9970   2
 -10   0  10 11.6604 2.53314   2
  10   0 -10 11.1400 6.18279   1
  10   0 -10 12.4717 2.86837   2
  10   0 -10 17.3999 4.97110   3
 -10   0  10 3.21297 8.48539   1
   9   0 -10 276.822 11.5193   2
  -9   0  10 213.277 18.8725   1
   9   0 -10 261.886 18.4234   1
   9   0 -10 309.624 13.4381   3
  -9   0  10 291.809 11.5242   2
  -8   0  10 181.258 15.3065   1
  -8   0  10 201.218 8.86267   2
   8   0 -10 200.027 9.01483   2
   8   0 -10 191.092 14.6617   1
   8   0 -10 206.484 10.5381   3
  -7   0  10 114.325 6.27193   2
  -7   0  10 118.721 11.7671   1
   7   0 -10 109.323 10.7547   3
   7   0 -10 122.173 12.5744   1
   6   0 -10 5.44548 5.74180   1
  -6   0  10 8.64865 2.43714   2
  -6   0  10 6.08968 6.35651   1
   6   0 -10 8.96659 2.65427   2
   6   0 -10 8.05559 3.88685   3
   5   0 -10 509.463 20.1648   3
   5   0 -10 465.200 18.5855   2
  -5   0  10 472.851 18.5557   2
   5   0 -10 476.446 25.0265   1
  -5   0  10 469.016 24.5968   1
   4   0 -10 455.470 21.2387   3
  -4   0  10 475.986 23.7805   1
   4   0 -10 432.715 17.5268   2
   4   0 -10 409.303 22.9879   1
  -4   0  10 459.839 17.5359   2
   3   0 -10 427.273 16.3810   2
  -3   0  10 412.200 16.2810   2
   3   0 -10 401.051 21.8971   1
   3   0 -10 397.086 16.7416   3
  -3   0  10 411.646 21.9441   1
  -2   0  10 50.3218 4.59916   2
   2   0 -10 45.6161 7.75502   1
   2   0 -10 54.4584 5.12810   3
  -2   0  10 49.6085 7.81198   1
   2   0 -10 41.6309 4.57941   2
   1   0 -10 6.92171 2.70506   2
   1   0 -10 0.47892 5.27398   1
   1   0 -10 1.91371 3.03673   3
  -1   0  10 -0.1366 4.79259   1
  -1   0  10 6.15992 2.57541   2
   0   0  10 1265.96 51.8464   1
   0   0 -10 1263.50 46.2996   2
   0   0 -10 1278.63 46.4278   3
   0   0  10 1258.58 46.2173   2
   0   0 -10 1212.55 52.2362   1
  -1   0 -10 134.401 7.62425   2
   1   0  10 144.120 7.39215   2
  -2   0 -10 2406.29 95.2979   1
  -2   0 -10 2439.57 87.5481   2
   2   0  10 2404.81 87.4751   2
  -3   0 -10 702.616 26.4911   2
   3   0  10 711.485 26.3625   2
  -3   0 -10 631.585 36.7060   1
  -3   0 -10 692.150 32.7172   1
  -4   0 -10 671.492 32.9417   1
   4   0  10 714.586 26.3487   2
  -4   0 -10 687.494 26.2691   3
  -4   0 -10 688.619 26.4235   2
  -4   0 -10 665.286 32.9041   1
  -5   0 -10 1006.03 37.3841   2
  -5   0 -10 970.938 37.2589   3
  -5   0 -10 1082.19 44.9990   1
  -5   0 -10 962.780 44.5218   1
   5   0  10 981.774 37.2983   2
  -6   0 -10 241.835 17.6445   1
  -6   0 -10 255.154 17.8533   1
  -6   0 -10 255.265 11.3027   3
  -6   0 -10 251.461 11.5047   2
   6   0  10 262.192 11.6938   2
  -7   0 -10 786.940 30.0568   3
  -7   0 -10 809.969 37.7554   1
  -7   0 -10 795.305 30.2469   2
   7   0  10 752.927 30.6474   2
  -7   0 -10 835.201 38.1190   1
  -8   0 -10 19.8250 7.38504   1
  -8   0 -10 12.6755 7.34986   1
   8   0  10 23.3801 3.59115   2
  -8   0 -10 19.4361 3.58132   2
  -8   0 -10 18.9100 3.31272   3
  -9   0 -10 506.236 28.2583   1
  -9   0 -10 549.014 29.2882   1
   9   0  10 516.753 20.8662   2
  -9   0 -10 537.747 21.0885   2
 -10   0 -10 21.9491 3.77745   2
 -10   0 -10 23.5763 3.53188   3
 -10   0 -10 30.1863 9.48924   1
 -10   0 -10 28.2485 8.62251   1
 -11   0 -10 2.16574 2.88840   3
 -11   0 -10 3.96689 3.11463   2
 -11   0 -10 12.8402 7.46910   1
 -11   0 -10 -2.0875 6.85054   1
 -12   0 -10 32.5055 9.90293   1
 -12   0 -10 41.6283 4.30997   2
 -12   0 -10 32.8275 9.28399   1
 -12   0 -10 34.5436 6.58510   3
 -13   0 -10 13.9442 9.96066   1
 -13   0 -10 12.0094 3.77444   2
 -13   0 -10 7.46155 7.66461   1
 -14   0 -10 25.7507 13.5226   1
 -14   0 -10 9.96309 3.55913   2
 -14   0 -10 -4.4495 9.01632   1
 -15   0 -10 2.42721 7.36885   1
 -15   0 -10 4.57978 3.38461   2
 -15   0 -10 -0.4478 9.57717   1
 -16   0 -10 159.635 17.7010   1
 -16   0 -10 178.634 19.9015   1
 -17   0 -10 70.1511 13.0260   1
 -17   0 -10 86.5549 16.1965   1
 -17   0 -10 108.853 7.62457   2
 -18   0 -10 97.0331 18.8513   1
 -18   0 -10 93.9838 7.28771   2
 -18   0 -10 63.9844 13.1534   1
 -19   0 -10 67.1663 6.79866   2
 -19   0 -10 52.9898 14.5506   1
 -19   0 -10 76.9215 17.9044   1
 -20   0 -10 30.8944 4.64842   2
  23  -1 -10 0.42160 5.72855   3
  23   1 -10 -2.7419 6.55206   3
  22  -1 -10 7.94548 5.93456   3
  22   1 -10 14.0688 9.98124   1
  22   1 -10 -0.4363 6.35598   3
 -21  -1  10 42.6209 15.4173   1
  21  -1 -10 11.4176 8.87832   1
  21  -1 -10 5.12940 5.88684   3
  21   1 -10 2.23561 11.0396   1
  21   1 -10 2.96885 6.30085   3
 -21   1  10 -6.5661 11.1318   1
 -20  -1  10 22.7316 12.9792   1
  20  -1 -10 12.1237 8.11419   1
  20  -1 -10 4.77449 6.27754   3
  20   1 -10 10.6603 8.69746   1
  20   1 -10 9.46603 6.62904   3
 -20   1  10 8.66218 9.50816   1
 -19  -1  10 28.9459 3.02150   2
  19  -1 -10 27.3607 7.79079   1
  19  -1 -10 18.9624 6.64772   3
 -19  -1  10 14.7027 10.5373   1
 -19   1  10 15.1097 9.66448   1
  19   1 -10 32.3240 12.9413   3
  19   1 -10 4.24525 8.19575   1
  18  -1 -10 24.9271 8.54043   1
 -18  -1  10 32.9723 4.52943   2
 -18  -1  10 16.4193 11.6419   1
  18  -1 -10 38.6733 7.15643   3
  18   1 -10 17.7802 9.03654   1
 -18   1  10 22.5223 10.5776   1
  18   1 -10 35.6680 7.28627   3
 -17  -1  10 6.39433 9.04958   1
  17  -1 -10 9.84923 6.08203   3
  17  -1 -10 -9.0609 5.71730   1
 -17  -1  10 3.41553 2.31240   2
  17   1 -10 -2.4574 5.39667   3
  17   1 -10 1.22321 6.33062   1
  16  -1 -10 13.5378 6.59940   1
  16  -1 -10 10.1361 5.81518   3
 -16  -1  10 21.6291 2.83566   2
 -16  -1  10 5.22450 8.69990   1
  16   1 -10 7.26174 7.39378   1
  16   1 -10 13.9522 6.02226   3
  16   1 -10 14.3417 2.91844   2
  15  -1 -10 46.8610 6.69947   3
 -15  -1  10 57.4552 11.0412   1
  15  -1 -10 34.7518 8.86673   1
 -15  -1  10 42.8841 4.54784   2
  15   1 -10 51.6462 6.60143   3
  15   1 -10 35.5549 9.37790   1
 -15   1  10 41.8943 11.8748   1
  14  -1 -10 6.62080 4.75448   3
  14  -1 -10 10.6511 1.64502   2
 -14  -1  10 11.7183 2.67256   2
  14  -1 -10 4.42583 5.79298   1
 -14  -1  10 -3.6484 7.32976   1
  14   1 -10 11.5200 5.36670   3
  14   1 -10 8.88218 2.48101   2
 -14   1  10 13.1694 7.25759   1
  14   1 -10 5.80706 6.37552   1
  13  -1 -10 118.246 12.4491   1
  13  -1 -10 99.8937 5.05199   2
 -13  -1  10 78.4019 13.9069   1
 -13  -1  10 114.498 6.34548   2
  13  -1 -10 109.860 8.68987   3
  13   1 -10 101.131 13.6883   1
  13   1 -10 117.921 9.31282   3
  13   1 -10 94.7476 5.92199   2
 -12  -1  10 2.87311 2.53521   2
  12  -1 -10 -0.7906 5.57863   1
  12  -1 -10 4.60312 1.85541   2
 -12  -1  10 8.06100 10.5444   1
  12  -1 -10 9.25026 4.61655   3
  12   1 -10 3.97222 2.39949   2
  12   1 -10 4.66216 6.46109   1
  12   1 -10 5.16173 4.45418   3
  11  -1 -10 29.2816 5.62643   3
  11  -1 -10 16.4507 2.47882   2
  11  -1 -10 20.0411 7.19692   1
 -11  -1  10 21.1381 3.11173   2
 -11  -1  10 11.1653 13.2462   1
  11   1 -10 17.8504 2.97388   2
  11   1 -10 15.9426 7.24371   1
 -11   1  10 18.6050 2.41980   2
  11   1 -10 28.3905 5.71052   3
  10  -1 -10 83.8360 7.76482   3
 -10  -1  10 84.0927 5.81544   2
  10  -1 -10 54.2715 9.48359   1
  10  -1 -10 80.1002 4.87246   2
  10   1 -10 79.8155 11.7027   1
 -10   1  10 71.0104 10.9900   1
 -10   1  10 72.5800 7.56954   2
  10   1 -10 66.5454 5.46369   2
  10   1 -10 88.8248 7.71078   3
   9  -1 -10 102.601 11.5275   1
  -9  -1  10 108.184 6.60392   2
   9  -1 -10 106.541 8.05612   3
  -9   1  10 99.3192 10.9122   1
   9   1 -10 116.837 6.53330   2
   9   1 -10 120.200 8.27238   3
  -9   1  10 117.511 5.84414   2
   9   1 -10 116.445 14.1048   1
   8  -1 -10 51.4984 4.46620   2
  -8  -1  10 45.2100 5.04489   2
   8  -1 -10 71.7218 6.87722   3
   8  -1 -10 42.8833 8.17256   1
  -8   1  10 65.5788 8.93520   1
  -8   1  10 62.6303 4.39058   2
   8   1 -10 59.2492 6.74636   3
   8   1 -10 57.0629 10.0556   1
   8   1 -10 59.3164 5.08485   2
  -7  -1  10 251.405 11.1142   2
   7  -1 -10 268.250 10.8514   2
   7  -1 -10 244.280 16.2280   1
   7  -1 -10 252.523 12.1096   3
   7   1 -10 244.936 11.0106   2
   7   1 -10 266.799 18.5278   1
  -7   1  10 251.009 10.6038   2
  -7   1  10 243.455 15.2973   1
  -6  -1  10 139.300 7.46646   2
   6  -1 -10 126.522 11.7699   1
   6  -1 -10 147.821 8.72380   3
   6   1 -10 144.607 7.43364   2
   6   1 -10 143.292 8.34372   3
  -6   1  10 138.782 6.92525   2
  -6   1  10 142.806 11.6222   1
   6   1 -10 153.703 13.6953   1
   5  -1 -10 61.1495 8.68531   1
  -5  -1  10 51.2590 11.5331   1
   5  -1 -10 71.3584 5.02922   2
   5  -1 -10 66.1740 7.17985   3
  -5  -1  10 72.1843 5.28611   2
   5   1 -10 69.1384 5.32338   2
   5   1 -10 64.9189 9.61840   1
   5   1 -10 55.7900 6.76432   3
  -5   1  10 65.3116 8.33998   1
  -5   1  10 72.5625 4.83388   2
  -4  -1  10 4.69651 7.11752   1
   4  -1 -10 7.62675 2.42007   2
  -4  -1  10 7.77266 2.73651   2
   4  -1 -10 3.40111 4.86842   1
   4   1 -10 11.5587 3.24685   3
  -4   1  10 4.62512 4.74467   1
  -4   1  10 8.89372 2.24081   2
   4   1 -10 5.93535 2.52225   2
   4   1 -10 15.0503 6.81086   1
  -3  -1  10 97.5737 12.0458   1
   3  -1 -10 87.2438 5.77444   2
  -3  -1  10 84.9118 5.74429   2
   3  -1 -10 80.7112 6.73631   3
   3  -1 -10 82.1897 9.74692   1
  -3   1  10 87.3246 5.39476   2
  -3   1  10 88.8091 8.93963   1
   3   1 -10 78.2314 10.8227   1
   3   1 -10 94.5835 6.03699   2
   3   1 -10 82.3831 6.05676   3
   2  -1 -10 292.870 12.3192   2
   2  -1 -10 283.660 17.2634   1
  -2  -1  10 315.810 18.9075   1
  -2  -1  10 290.651 12.2594   2
  -2   1  10 282.883 12.0654   2
   2   1 -10 292.424 12.4087   2
   2   1 -10 282.153 12.2974   3
   2   1 -10 279.573 18.4661   1
  -1  -1  10 70.4920 5.32492   2
   1  -1 -10 69.9693 5.61007   2
   1  -1 -10 75.4164 9.98671   1
  -1  -1  10 73.4846 10.1789   1
   1   1 -10 67.9696 5.65295   2
   1   1 -10 70.0415 5.26481   3
  -1   1  10 69.4350 5.08396   2
   1   1 -10 55.2447 9.40898   1
   0  -1 -10 -0.0941 5.16352   1
   0  -1 -10 0.98240 3.05997   2
   0  -1  10 -1.6301 2.34822   2
   0  -1  10 4.39950 6.17346   1
   0   1  10 -2.0173 2.43827   2
   0   1 -10 -3.7945 2.79508   2
   0   1 -10 7.58461 6.11692   1
   0   1 -10 1.74201 2.58954   3
  -1  -1 -10 748.361 27.9728   2
   1  -1  10 714.570 27.8848   2
   1  -1  10 772.904 35.2637   1
  -1  -1 -10 721.481 33.7238   1
   1   1  10 748.187 27.9011   2
  -1   1 -10 740.719 28.0380   2
  -1   1 -10 746.606 35.2592   1
  -1   1 -10 699.784 27.5807   3
  -2  -1 -10 695.060 25.3410   2
  -2  -1 -10 636.857 25.5019   3
  -2  -1 -10 670.084 31.2722   1
   2  -1  10 662.616 25.1893   2
  -2  -1 -10 666.946 30.8507   1
   2  -1  10 647.185 31.9472   1
  -2   1 -10 626.320 24.7281   3
  -2   1 -10 638.241 25.2676   2
  -2   1 -10 647.406 32.0631   1
   2   1  10 665.178 25.1721   2
  -3  -1 -10 198.301 9.77124   3
   3  -1  10 188.806 9.38369   2
  -3  -1 -10 193.292 9.52588   2
  -3  -1 -10 194.274 15.3620   1
  -3  -1 -10 188.089 14.3938   1
  -3   1 -10 193.758 15.4621   1
  -3   1 -10 199.288 9.51199   2
  -3   1 -10 190.064 8.81791   3
   3   1  10 196.391 9.34035   2
  -4  -1 -10 385.995 15.6395   2
   4  -1  10 386.320 15.4634   2
  -4  -1 -10 360.270 15.7463   3
  -4  -1 -10 394.374 21.9360   1
  -4  -1 -10 381.433 21.3732   1
  -4   1 -10 392.596 22.2480   1
   4   1  10 377.719 15.4672   2
  -4   1 -10 369.372 14.8678   3
  -4   1 -10 366.211 14.8909   3
  -4   1 -10 376.641 15.6341   2
  -4   1 -10 345.457 21.8310   1
  -5  -1 -10 28.6539 3.77205   2
  -5  -1 -10 22.7675 3.79807   3
   5  -1  10 31.8949 3.94232   2
  -5  -1 -10 21.7223 7.01945   1
  -5  -1 -10 15.6025 6.48594   1
   5   1  10 23.4793 5.20370   2
  -5   1 -10 23.8037 3.59145   2
  -5   1 -10 27.0635 7.87072   1
  -5   1 -10 23.2800 2.97610   3
  -5   1 -10 29.9145 3.19229   3
  -5   1 -10 29.6115 8.35629   1
  -6  -1 -10 27.1361 7.29670   1
  -6  -1 -10 16.2836 7.62753   1
  -6  -1 -10 18.9762 3.53282   2
  -6  -1 -10 10.8192 3.31762   3
  -6   1 -10 23.4884 2.91224   3
  -6   1 -10 9.87991 6.98547   1
   6   1  10 20.3577 3.14170   2
  -6   1 -10 22.6907 3.50251   2
  -6   1 -10 15.2075 7.14481   1
  -7  -1 -10 133.106 13.5117   1
   7  -1  10 123.822 7.27497   2
  -7  -1 -10 130.914 14.6861   1
  -7  -1 -10 128.351 7.84397   2
  -7   1 -10 125.943 7.71809   2
   7   1  10 129.021 7.25452   2
  -7   1 -10 134.479 14.1375   1
  -7   1 -10 114.737 13.0993   1
  -7   1 -10 126.987 6.48357   3
  -8  -1 -10 16.6649 13.4286   1
  -8  -1 -10 46.9548 4.98230   2
   8  -1  10 43.2452 4.96257   2
  -8  -1 -10 30.0478 12.4266   1
   8   1  10 36.7909 4.05996   2
  -8   1 -10 40.0353 9.16821   1
  -8   1 -10 23.7922 8.44007   1
  -8   1 -10 37.7012 4.28080   2
  -8   1 -10 34.5253 4.01067   3
  -9  -1 -10 89.0637 11.7409   1
   9  -1  10 78.7535 6.08836   2
  -9  -1 -10 91.3783 12.5090   1
  -9  -1 -10 89.2554 7.02584   2
  -9   1 -10 79.3433 5.18806   3
  -9   1 -10 84.5992 6.59128   2
  -9   1 -10 92.1498 12.4855   1
  -9   1 -10 98.3048 13.3950   1
 -10  -1 -10 -9.1702 6.15242   1
 -10  -1 -10 3.95166 6.45514   1
 -10  -1 -10 1.64665 3.64844   2
 -10   1 -10 -12.425 5.54610   1
 -10   1 -10 -4.1827 6.64314   1
 -10   1 -10 -3.3035 2.16445   3
 -10   1 -10 -3.2295 2.85443   2
 -11  -1 -10 2.10086 6.56501   1
 -11  -1 -10 4.08151 6.20612   1
 -11  -1 -10 2.45690 3.32391   2
 -11   1 -10 6.73891 13.2363   1
 -11   1 -10 5.29968 2.41736   3
 -11   1 -10 -2.6101 6.66853   1
 -11   1 -10 5.70394 3.41605   2
 -12  -1 -10 64.3911 11.0140   1
 -12  -1 -10 78.4781 6.86232   2
 -12  -1 -10 58.4758 12.2517   1
 -12   1 -10 79.7937 6.46554   2
 -12   1 -10 75.6465 12.9710   1
 -12   1 -10 70.9673 4.96611   3
 -12   1 -10 60.9010 11.8987   1
 -13  -1 -10 16.8078 8.34288   1
 -13  -1 -10 26.8957 9.49147   1
 -13  -1 -10 37.9965 5.04477   2
 -13   1 -10 23.0290 8.43872   1
 -13   1 -10 23.4249 4.03641   2
 -13   1 -10 38.6958 10.5335   1
 -13   1 -10 23.4158 3.16344   3
 -14  -1 -10 7.03693 9.54531   1
 -14  -1 -10 2.64704 3.80776   2
 -14  -1 -10 10.3651 7.68014   1
 -14   1 -10 -1.9888 2.21841   3
 -14   1 -10 5.77937 6.84566   1
 -14   1 -10 6.55241 3.30733   2
 -14   1 -10 -10.493 8.81573   1
 -15  -1 -10 8.69887 5.03048   2
 -15  -1 -10 -8.9350 7.61428   1
 -15  -1 -10 -1.2598 7.10861   1
 -15   1 -10 6.41347 7.29536   1
 -15   1 -10 2.09113 9.31066   1
 -15   1 -10 5.67007 2.78050   3
 -15   1 -10 2.55589 3.05189   2
 -16  -1 -10 62.1125 18.9344   1
 -16  -1 -10 79.5475 7.39687   2
 -16  -1 -10 117.453 16.9110   1
 -16   1 -10 79.7310 13.3672   1
 -16   1 -10 96.6091 8.12757   2
 -16   1 -10 63.4929 13.5851   1
 -17  -1 -10 3.72012 9.32244   1
 -17  -1 -10 14.9488 11.5085   1
 -17  -1 -10 10.2087 4.01815   2
 -17   1 -10 3.63980 10.1683   1
 -17   1 -10 9.04021 3.86500   2
 -17   1 -10 23.7778 12.0175   1
 -18  -1 -10 -8.8305 10.8638   1
 -18  -1 -10 -5.5596 3.21164   2
 -18   1 -10 3.60792 16.5976   1
 -18   1 -10 -2.8692 3.31106   2
 -18   1 -10 8.07511 16.9496   1
 -19  -1 -10 48.4705 17.1095   1
 -19  -1 -10 105.654 8.00132   2
 -19  -1 -10 74.8773 15.9934   1
 -19   1 -10 105.028 7.59858   2
  22  -2 -10 3.64194 6.06127   3
  22   2 -10 -8.7113 5.88864   3
  22   2 -10 -6.6759 12.4434   1
 -21  -2  10 -5.4476 16.5004   1
  21  -2 -10 -6.0278 5.86266   3
 -21   2  10 10.2372 9.92267   1
  21   2 -10 2.71825 10.2930   1
  21   2 -10 10.6801 7.14106   3
  20  -2 -10 -0.3857 7.87891   1
  20  -2 -10 4.09287 6.41915   3
 -20  -2  10 12.9643 14.4738   1
 -20   2  10 -5.9973 9.10726   1
  20   2 -10 -5.7623 8.33759   1
  20   2 -10 -2.0518 6.04800   3
 -19  -2  10 -21.333 10.0187   1
 -19  -2  10 4.33468 2.64036   2
  19  -2 -10 -7.9887 5.99727   1
  19   2 -10 0.41635 5.59748   3
  19   2 -10 6.07220 10.0542   1
  18  -2 -10 11.7500 5.67564   3
 -18  -2  10 21.9336 3.35670   2
  18  -2 -10 32.1457 8.49372   1
 -18  -2  10 19.8540 12.4595   1
 -18   2  10 19.3759 8.16982   1
  18   2 -10 24.4225 9.55826   1
 -17  -2  10 5.00445 2.99704   2
 -17  -2  10 -7.5823 9.42028   1
  17  -2 -10 5.98330 5.16653   3
  17  -2 -10 -8.1005 5.56039   1
  17   2 -10 -2.4704 7.18085   1
 -17   2  10 4.90715 6.01889   1
  17   2 -10 1.13979 5.89960   3
  17   2 -10 5.81307 2.61741   2
  16  -2 -10 38.6428 10.1289   1
 -16  -2  10 31.2048 3.85539   2
 -16  -2  10 32.7464 12.6622   1
  16  -2 -10 33.8261 6.13373   3
  16   2 -10 34.1250 3.65940   2
  16   2 -10 30.9201 7.27785   3
  16   2 -10 1.86180 13.8645   1
 -16   2  10 34.2299 7.10443   1
 -15  -2  10 16.0285 11.4354   1
  15  -2 -10 34.0556 6.57126   3
 -15  -2  10 27.6435 3.59390   2
  15   2 -10 23.6768 3.40044   2
  15   2 -10 27.4706 9.47952   1
  15   2 -10 24.3568 5.95833   3
 -15   2  10 17.7772 6.21997   1
 -14  -2  10 -1.8685 8.54694   1
  14  -2 -10 14.7439 1.40676   2
  14  -2 -10 12.3904 1.43452   2
 -14  -2  10 11.3104 3.05244   2
  14  -2 -10 16.2764 5.45858   3
  14   2 -10 16.4325 3.18636   2
  14   2 -10 5.73292 7.38596   1
  14   2 -10 16.4060 5.38818   3
 -14   2  10 8.27262 5.41084   1
  13  -2 -10 9.81984 1.79536   2
 -13  -2  10 11.6942 3.24765   2
  13  -2 -10 6.36852 8.97890   1
  13  -2 -10 7.12523 4.59831   3
  13  -2 -10 9.52862 1.65379   2
 -13  -2  10 19.5590 9.31227   1
 -13   2  10 12.9476 5.06403   1
  13   2 -10 5.59725 4.64095   3
  13   2 -10 9.44303 2.93869   2
  13   2 -10 5.29377 7.07577   1
  12  -2 -10 7.60927 1.95939   2
 -12  -2  10 7.57414 9.04436   1
  12  -2 -10 -4.4489 4.50843   3
 -12  -2  10 6.05386 2.81000   2
  12  -2 -10 -0.9474 5.95910   1
  12   2 -10 1.47306 4.38538   3
  12   2 -10 12.8315 6.99853   1
  12   2 -10 2.85461 2.78727   2
 -12   2  10 8.69979 4.62035   1
  11  -2 -10 8.61679 5.60032   1
 -11  -2  10 4.39812 7.58746   1
  11  -2 -10 7.52053 4.29674   3
  11  -2 -10 6.15244 2.09707   2
 -11  -2  10 3.94874 2.66511   2
 -11   2  10 6.92477 4.13425   1
  11   2 -10 7.63629 2.86992   2
  11   2 -10 4.40463 6.64355   1
  11   2 -10 10.3346 4.95720   3
  10  -2 -10 15.3591 4.62698   3
  10  -2 -10 15.2908 6.04143   1
 -10  -2  10 15.9582 3.12912   2
 -10  -2  10 17.8151 8.56653   1
 -10   2  10 11.5006 4.21491   1
  10   2 -10 17.7847 8.02756   1
  10   2 -10 11.8560 2.98029   2
  10   2 -10 22.1341 4.80131   3
   9  -2 -10 56.5501 7.04116   3
  -9  -2  10 55.6620 5.64089   2
  -9  -2  10 40.3440 11.2460   1
   9  -2 -10 49.8604 4.37829   2
   9  -2 -10 53.7793 8.25975   1
   9   2 -10 48.0786 5.43527   3
   9   2 -10 62.7493 10.4688   1
   9   2 -10 43.3933 4.48719   2
  -9   2  10 48.5291 5.91370   1
   8  -2 -10 86.1591 9.96458   1
   8  -2 -10 57.3159 5.74624   2
  -8  -2  10 74.0219 12.2692   1
   8  -2 -10 78.1173 7.43047   3
  -8  -2  10 66.1506 6.13372   2
   8   2 -10 80.9824 6.10340   2
   8   2 -10 67.6594 7.35299   3
   8   2 -10 78.3666 11.7744   1
   7  -2 -10 83.5397 5.40047   2
  -7  -2  10 84.3896 12.8108   1
   7  -2 -10 70.9167 10.1188   1
  -7  -2  10 75.6193 6.11502   2
   7  -2 -10 73.1910 7.42901   3
  -7  -2  10 57.9076 6.07567   3
   7   2 -10 88.5338 7.85072   3
   7   2 -10 80.4061 11.6858   1
   7   2 -10 75.0385 6.08546   2
  -6  -2  10 4.56333 2.80274   3
   6  -2 -10 9.48850 7.45213   1
   6  -2 -10 5.90948 4.09995   3
   6  -2 -10 -1.6184 2.43470   2
  -6  -2  10 3.45859 2.63809   2
  -6  -2  10 5.26672 7.09283   1
   6   2 -10 4.48759 3.84827   3
   6   2 -10 -1.2379 2.84606   2
   6   2 -10 -1.1272 5.64476   1
  -5  -2  10 -0.9244 4.73598   3
   5  -2 -10 -0.9768 3.86200   3
   5  -2 -10 3.50817 2.45851   2
  -5  -2  10 0.74294 6.61066   1
  -5  -2  10 -0.0525 2.90159   2
   5   2 -10 -5.1651 5.91318   1
   5   2 -10 -4.1795 2.81267   2
   4  -2 -10 -3.1962 2.68691   2
  -4  -2  10 -0.9998 2.49235   2
   4  -2 -10 10.9358 5.05128   1
  -4  -2  10 -0.0811 7.08984   1
   4   2 -10 0.78942 3.02211   3
   4   2 -10 4.04984 5.77173   1
   4   2 -10 2.03186 2.59630   2
   3  -2 -10 128.945 11.3457   1
  -3  -2  10 154.911 14.5918   1
  -3  -2  10 145.640 7.82740   2
   3  -2 -10 150.995 7.77920   2
   3   2 -10 144.513 13.8393   1
   3   2 -10 140.051 7.68643   3
   3   2 -10 150.332 8.06382   2
  -2  -2  10 6.19408 7.22160   1
   2  -2 -10 -0.6792 4.54944   1
   2  -2 -10 11.1075 3.35286   2
  -2  -2  10 5.93458 2.70142   2
   2   2 -10 9.85993 2.96969   2
   2   2 -10 9.14587 2.82380   3
   2   2 -10 10.8674 6.49124   1
  -1  -2  10 15.4142 7.44798   1
   1  -2 -10 6.56267 5.21804   1
  -1  -2  10 7.97073 2.87755   2
   1  -2 -10 7.04245 3.05848   2
   1   2 -10 6.24698 3.09056   2
   1   2 -10 9.42836 2.87316   3
   1   2 -10 13.3499 6.63756   1
   0  -2 -10 5.46600 5.37230   1
   0  -2  10 3.61376 6.90912   1
   0  -2 -10 0.98921 3.03391   2
   0  -2 -10 9.92568 5.59489   1
   0  -2  10 7.26728 3.11376   2
   0   2 -10 1.67675 2.37996   3
   0   2 -10 -1.7308 3.09439   2
   0   2 -10 -2.9546 5.90248   1
  -1  -2 -10 182.760 14.2321   1
   1  -2  10 193.557 16.0597   1
  -1  -2 -10 184.214 14.2084   1
   1  -2  10 169.332 12.0179   2
  -1  -2 -10 202.349 9.80440   2
  -1   2 -10 210.360 16.1668   1
  -1   2 -10 194.094 9.86665   2
  -1   2 -10 195.876 8.56671   3
   2  -2  10 191.990 11.4335   2
   2  -2  10 187.692 16.7476   1
  -2  -2 -10 191.996 14.2084   1
  -2  -2 -10 196.897 9.84886   2
  -2  -2 -10 189.324 14.1182   1
  -2   2 -10 191.204 9.73322   2
  -2   2 -10 186.712 8.32693   3
  -2   2 -10 188.182 15.7107   1
   3  -2  10 7.15739 2.98060   2
  -3  -2 -10 5.29621 5.58793   1
  -3  -2 -10 9.16672 5.82107   1
  -3  -2 -10 9.52861 3.79785   2
   3  -2  10 12.2021 7.79117   1
  -3   2 -10 13.8119 2.33836   3
  -3   2 -10 9.52733 3.23855   2
  -3   2 -10 6.09081 6.48550   1
  -4  -2 -10 102.813 7.24940   2
  -4  -2 -10 89.8561 11.2573   1
   4  -2  10 98.9487 6.67843   2
  -4  -2 -10 87.3081 10.3968   1
  -4   2 -10 95.5875 12.3357   1
  -4   2 -10 95.3931 4.92302   3
  -4   2 -10 104.113 7.08292   2
  -4   2 -10 98.8134 5.69376   3
  -4   2 -10 85.7078 11.7011   1
   5  -2  10 79.8866 5.98711   2
  -5  -2 -10 77.4991 6.79924   2
  -5  -2 -10 71.4010 10.2464   1
  -5  -2 -10 82.5234 10.9724   1
  -5   2 -10 89.5775 11.9901   1
  -5   2 -10 80.6207 4.25843   3
  -5   2 -10 89.1238 11.8085   1
  -5   2 -10 85.7170 6.55491   2
  -5   2 -10 74.4022 4.16030   3
  -6  -2 -10 13.7899 3.72856   2
   6  -2  10 11.7870 3.41563   2
  -6  -2 -10 15.1302 6.94690   1
  -6  -2 -10 27.2139 6.85488   1
  -6   2 -10 19.8731 2.49622   3
  -6   2 -10 17.6086 7.58414   1
  -6   2 -10 21.9750 2.15417   3
  -6   2 -10 12.2803 7.89558   1
  -6   2 -10 18.8786 3.55003   2
  -7  -2 -10 142.740 13.7521   1
  -7  -2 -10 155.170 14.8807   1
   7  -2  10 125.353 8.29676   2
  -7  -2 -10 135.770 8.51217   2
  -7   2 -10 137.647 5.78010   3
  -7   2 -10 138.864 24.0466   1
  -7   2 -10 126.999 8.22391   2
  -7   2 -10 140.788 5.76438   3
  -7   2 -10 133.868 15.4948   1
  -8  -2 -10 276.878 18.8702   1
  -8  -2 -10 283.993 12.9269   2
  -8  -2 -10 262.459 19.6744   1
  -8   2 -10 281.297 12.6491   2
  -8   2 -10 272.510 19.6047   1
  -8   2 -10 244.599 19.0754   1
  -8   2 -10 271.249 10.2425   3
  -8   2 -10 260.918 10.2107   3
  -9  -2 -10 2.46789 6.36275   1
  -9  -2 -10 4.39598 3.60075   2
  -9  -2 -10 -4.1913 6.06008   1
  -9   2 -10 4.25317 1.18456   3
  -9   2 -10 -1.9108 6.54776   1
  -9   2 -10 5.18420 8.19745   1
  -9   2 -10 2.88942 3.38354   2
 -10  -2 -10 56.7118 10.8047   1
 -10  -2 -10 78.7143 7.06471   2
 -10  -2 -10 66.6280 13.5527   1
 -10   2 -10 65.7087 6.47173   2
 -10   2 -10 59.8652 10.7538   1
 -10   2 -10 72.5556 12.4849   1
 -11  -2 -10 9.60097 8.24142   1
 -11  -2 -10 -4.1051 3.91774   2
 -11   2 -10 -6.1279 7.71656   1
 -11   2 -10 1.72807 3.02416   2
 -11   2 -10 1.66171 6.48602   1
 -12  -2 -10 16.9376 7.52580   2
 -12  -2 -10 21.0392 9.15868   1
 -12   2 -10 26.3520 4.25642   2
 -12   2 -10 8.07649 8.28292   1
 -12   2 -10 18.9806 7.88705   1
 -13  -2 -10 8.31931 3.85941   2
 -13  -2 -10 8.49611 9.85054   1
 -13   2 -10 10.9001 3.23292   2
 -13   2 -10 14.5230 7.43235   1
 -13   2 -10 11.2233 8.86314   1
 -14  -2 -10 6.57457 9.44907   1
 -14  -2 -10 6.04651 3.83393   2
 -14   2 -10 9.09909 3.43108   2
 -14   2 -10 17.3341 9.50464   1
 -14   2 -10 12.4822 11.0187   1
 -15  -2 -10 125.621 9.05957   2
 -15  -2 -10 122.530 20.8027   1
 -15   2 -10 97.4181 15.1823   1
 -15   2 -10 103.740 15.2436   1
 -15   2 -10 143.202 10.8652   2
 -16  -2 -10 68.0148 7.84307   2
 -16  -2 -10 78.4512 16.0469   1
 -16   2 -10 61.3085 13.3997   1
 -16   2 -10 82.7737 6.96947   2
 -17  -2 -10 4.31735 4.60327   2
 -17   2 -10 4.06961 13.7595   1
 -17   2 -10 0.51190 3.37550   2
 -18  -2 -10 45.4258 5.89509   2
 -18   2 -10 36.4527 4.59869   2
 -20  -3  10 4.92811 16.3533   1
  20  -3 -10 0.78531 5.74500   3
  20   3 -10 6.12074 6.43228   3
  19  -3 -10 4.63530 5.58424   3
 -19  -3  10 -1.1414 14.8897   1
  19  -3 -10 -0.2511 7.15364   1
  19   3 -10 1.75074 6.05728   3
  19   3 -10 17.3675 11.3000   1
 -18  -3  10 -18.926 11.6229   1
  18  -3 -10 5.40439 10.2292   3
  18  -3 -10 9.90215 6.97024   1
  18   3 -10 13.0253 6.17343   3
  18   3 -10 9.52361 14.7716   1
  17  -3 -10 -8.0197 4.70060   3
 -17  -3  10 -13.822 12.3155   1
  17  -3 -10 -0.2522 5.87580   1
  17   3 -10 2.21736 3.02394   2
  17   3 -10 3.06892 5.16725   3
  17   3 -10 -7.6252 8.91134   1
 -16  -3  10 14.1990 11.2328   1
  16  -3 -10 -2.6645 4.96349   3
  16  -3 -10 5.53776 5.52016   1
  16   3 -10 -1.2086 8.03390   1
  16   3 -10 2.19541 5.17848   3
  16   3 -10 2.95304 2.89386   2
  15  -3 -10 9.46668 5.02794   3
 -15  -3  10 32.3415 11.8777   1
  15  -3 -10 6.18807 5.73989   1
  15   3 -10 2.98610 8.06911   1
  15   3 -10 5.19877 2.95900   2
  15   3 -10 3.71774 4.93077   3
 -14  -3  10 27.0975 11.9075   1
  14  -3 -10 58.0626 7.20941   3
  14  -3 -10 46.8747 2.99006   2
  14  -3 -10 52.2002 3.14264   2
  14  -3 -10 31.2267 7.28603   1
  14   3 -10 54.3276 5.24302   2
  14   3 -10 51.2490 12.1283   1
  14   3 -10 74.6251 8.90056   3
  13  -3 -10 -2.1011 1.67723   2
  13  -3 -10 0.73777 4.60394   1
  13  -3 -10 -1.0008 4.27728   3
 -13  -3  10 0.88903 10.6118   1
  13  -3 -10 -0.7954 1.51906   2
  13   3 -10 2.84559 8.22423   1
  13   3 -10 2.97876 2.83014   2
  13   3 -10 1.29708 5.05856   3
 -12  -3  10 5.17644 13.7691   1
  12  -3 -10 3.85928 1.83056   2
  12  -3 -10 5.02943 4.95224   1
  12  -3 -10 -0.6374 4.48006   3
  12   3 -10 -2.4013 7.34833   1
  12   3 -10 1.73759 4.64219   3
  12   3 -10 6.89956 3.41583   2
  11  -3 -10 3.30116 4.61124   1
  11  -3 -10 3.42430 4.24871   3
  11  -3 -10 2.73152 1.96343   2
 -11  -3  10 -6.2722 7.60010   1
  11   3 -10 5.89908 4.15454   3
  11   3 -10 5.72535 7.03829   1
  11   3 -10 6.33582 3.38678   2
  10  -3 -10 6.65192 2.22904   2
 -10  -3  10 5.29921 8.44311   1
  10  -3 -10 8.37981 4.75244   1
  10  -3 -10 2.86190 4.46297   3
  10  -3 -10 6.46338 2.43753   2
  10   3 -10 -0.1461 7.00696   1
  10   3 -10 7.72541 4.36731   3
  10   3 -10 7.84857 3.40722   2
   9  -3 -10 5.69105 2.25420   2
   9  -3 -10 -1.5214 2.38518   2
   9  -3 -10 -3.1377 3.85092   1
  -9  -3  10 -4.5994 7.40811   1
   9  -3 -10 0.58198 4.38186   3
   9   3 -10 4.95989 4.24057   3
   9   3 -10 4.70730 3.31079   2
   9   3 -10 -8.2085 5.72866   1
   8  -3 -10 21.0227 3.26874   2
   8  -3 -10 23.9680 5.37078   1
  -8  -3  10 18.5832 8.31527   1
   8  -3 -10 18.4173 4.82757   3
   8   3 -10 13.4907 3.96576   2
   8   3 -10 14.4137 4.05349   3
   8   3 -10 11.9085 7.56387   1
   7  -3 -10 18.7110 5.25008   1
  -7  -3  10 13.1437 9.23598   1
   7  -3 -10 14.6468 5.18361   3
   7  -3 -10 21.5814 3.51054   2
   7   3 -10 19.0343 3.77388   2
   7   3 -10 23.6594 4.59822   3
   7   3 -10 25.2039 11.0498   1
   6  -3 -10 9.97941 4.52016   1
  -6  -3  10 10.0853 8.06840   1
   6  -3 -10 9.02477 4.50652   3
  -6  -3  10 10.1761 3.30590   3
   6  -3 -10 4.87846 2.75686   2
   6   3 -10 4.50801 3.19141   2
   6   3 -10 7.85049 3.83928   3
   6   3 -10 11.3522 12.4345   1
  -5  -3  10 22.5978 9.20834   1
   5  -3 -10 32.3084 3.83415   2
   5  -3 -10 32.2679 5.77273   1
  -5  -3  10 23.6744 3.65972   3
   5   3 -10 38.0501 4.76945   2
   5   3 -10 29.9673 4.11255   3
  -4  -3  10 6.63821 7.32840   1
   4  -3 -10 12.0327 4.73279   1
  -4  -3  10 16.6288 3.26540   3
   4  -3 -10 14.5996 3.42144   2
   4   3 -10 12.0279 3.41971   3
   4   3 -10 17.0715 3.74123   2
   3  -3 -10 73.9493 6.25727   2
  -3  -3  10 73.1696 11.7229   1
   3  -3 -10 70.1424 8.45954   1
   3  -3 -10 57.3728 7.74636   1
   3   3 -10 64.8945 6.46928   2
   3   3 -10 69.1281 5.66829   3
  -2  -3  10 112.038 13.6634   1
   2  -3 -10 109.570 7.09640   2
   2  -3 -10 93.3208 9.11196   1
   2  -3 -10 105.283 9.90968   1
   2   3 -10 104.997 7.58918   2
   2   3 -10 121.643 20.9812   1
   2   3 -10 98.6099 6.24653   3
   1  -3 -10 35.8765 6.52576   1
   1  -3 -10 36.4967 4.38150   2
  -1  -3  10 35.3749 9.05589   1
   1  -3 -10 36.7734 6.58339   1
   1   3 -10 41.1866 10.7931   1
   1   3 -10 44.5445 4.90318   2
   1   3 -10 37.9357 4.29572   3
   0  -3 -10 52.3719 4.94493   2
   0  -3 -10 43.5851 7.20964   1
   0  -3  10 54.4378 10.7244   1
   0  -3 -10 38.1956 6.73700   1
   0   3 -10 46.5793 5.06740   2
   0   3 -10 45.9061 9.42253   1
   0   3 -10 38.3197 4.00820   3
   1  -3  10 32.4662 9.24530   1
  -1  -3 -10 40.4353 7.23986   1
  -1  -3 -10 44.0843 7.40499   1
  -1  -3 -10 37.0842 4.28095   2
  -1   3 -10 38.2826 9.03286   1
  -1   3 -10 40.2005 4.46925   2
  -1   3 -10 41.5048 3.56202   3
  -2  -3 -10 148.712 8.75937   2
  -2  -3 -10 145.071 12.1735   1
  -2  -3 -10 157.875 12.8359   1
  -2   3 -10 135.818 6.31433   3
  -2   3 -10 175.265 15.2702   1
  -2   3 -10 153.434 8.83283   2
   3  -3  10 145.469 14.5218   1
  -3  -3 -10 128.453 12.1190   1
  -3  -3 -10 126.321 8.09716   2
  -3  -3 -10 102.475 13.2881   1
  -3   3 -10 136.719 14.7397   1
  -3   3 -10 122.308 5.27817   3
  -3   3 -10 128.851 8.31065   2
  -4  -3 -10 2.29638 5.75894   1
  -4  -3 -10 5.30551 3.50215   2
  -4  -3 -10 2.69865 5.18077   1
   4  -3  10 3.25996 6.67555   1
  -4   3 -10 3.21513 6.87036   1
  -4   3 -10 -5.5501 6.66694   1
  -4   3 -10 3.55751 3.06721   2
  -5  -3 -10 16.8827 6.58037   1
  -5  -3 -10 23.1808 4.64376   2
  -5  -3 -10 15.1591 6.75532   1
  -5   3 -10 18.5638 4.31880   2
  -5   3 -10 12.7713 7.57112   1
  -5   3 -10 9.59428 7.11486   1
  -6  -3 -10 20.5486 7.60188   1
  -6  -3 -10 18.8088 4.20691   2
  -6  -3 -10 12.5807 6.85329   1
  -6   3 -10 14.3095 3.80587   2
  -6   3 -10 15.7318 7.73926   1
  -6   3 -10 18.6377 7.57286   1
  -7  -3 -10 109.981 8.23123   2
  -7  -3 -10 114.346 13.1953   1
  -7  -3 -10 103.626 12.5039   1
  -7   3 -10 104.763 14.0600   1
  -7   3 -10 105.112 7.76850   2
  -7   3 -10 88.9658 12.9001   1
  -8  -3 -10 58.6959 10.4354   1
  -8  -3 -10 58.8416 9.94544   1
  -8  -3 -10 74.7741 7.88661   2
  -8   3 -10 71.5788 6.89857   2
  -8   3 -10 85.5896 12.2890   1
  -8   3 -10 80.0358 12.4303   1
  -9  -3 -10 3.95291 7.30005   1
  -9  -3 -10 1.82872 5.80777   2
  -9   3 -10 -0.3844 6.85518   1
  -9   3 -10 4.48220 3.11797   2
  -9   3 -10 1.99048 6.60151   1
 -10  -3 -10 3.02864 3.88862   2
 -10   3 -10 20.5904 8.60787   1
 -10   3 -10 6.47364 3.42901   2
 -10   3 -10 6.05092 7.91710   1
 -11  -3 -10 56.8743 6.13725   2
 -11  -3 -10 44.0830 11.3405   1
 -11   3 -10 65.3539 5.98984   2
 -11   3 -10 61.5700 11.9104   1
 -12  -3 -10 138.688 9.69591   2
 -12  -3 -10 129.343 16.4658   1
 -12   3 -10 115.350 16.2125   1
 -12   3 -10 147.187 13.5705   2
 -12   3 -10 138.372 16.0229   1
 -13  -3 -10 13.6988 5.17886   2
 -13   3 -10 8.45768 11.4139   1
 -13   3 -10 33.1747 10.9155   1
 -13   3 -10 17.7945 4.50597   2
 -14  -3 -10 15.1660 5.29417   2
 -14   3 -10 10.6556 3.79275   2
 -14   3 -10 11.4652 11.3657   1
 -15  -3 -10 119.860 9.62439   2
 -15   3 -10 116.223 8.45256   2
 -15   3 -10 96.1744 17.4962   1
 -16  -3 -10 26.9468 5.60505   2
 -16   3 -10 17.8167 4.13931   2
 -17  -3 -10 3.26946 4.41191   2
 -17   3 -10 -0.8667 3.16333   2
  18  -4 -10 -1.3413 4.43168   3
  18   4 -10 3.93085 5.24191   3
  17  -4 -10 2.43726 5.19598   3
 -17  -4  10 -13.829 12.6938   1
  17  -4 -10 3.56329 5.79343   1
  17   4 -10 5.93150 5.85381   3
  16  -4 -10 0.28480 5.40721   1
 -16  -4  10 -7.0717 14.5485   1
  16  -4 -10 -2.2639 7.83735   3
  16   4 -10 -2.5760 4.91184   3
  16   4 -10 1.15729 3.52346   2
  15  -4 -10 4.06361 5.60870   3
 -15  -4  10 10.6298 14.3426   1
  15  -4 -10 4.43096 5.19428   1
  15   4 -10 7.74333 5.04043   3
  15   4 -10 6.25174 3.96745   2
  14  -4 -10 -0.2831 2.19260   2
  14  -4 -10 4.76165 4.92546   3
 -14  -4  10 10.1439 11.2137   1
  14  -4 -10 4.77001 4.89745   1
  14   4 -10 10.7141 5.60593   3
  14   4 -10 3.73952 8.70482   1
  14   4 -10 2.31843 3.59516   2
  13  -4 -10 43.7425 6.40146   1
 -13  -4  10 32.2590 12.7064   1
  13  -4 -10 42.0283 4.69446   2
  13  -4 -10 41.6327 6.54724   3
  13  -4 -10 34.5143 3.55750   2
  13   4 -10 41.0734 11.3537   1
  13   4 -10 45.3208 6.42514   3
  13   4 -10 43.1883 5.30336   2
  12  -4 -10 52.4599 7.33915   1
  12  -4 -10 53.7825 4.52817   2
 -12  -4  10 57.7273 14.0729   1
  12  -4 -10 48.7702 6.58256   3
  12  -4 -10 54.9513 4.75679   2
  12   4 -10 48.6827 5.78305   2
  12   4 -10 75.9263 8.62252   3
  11  -4 -10 17.9722 5.31959   3
 -11  -4  10 55.8300 12.6723   1
  11  -4 -10 14.7618 4.23879   1
  11  -4 -10 15.7167 2.71304   2
  11  -4 -10 17.9151 3.05835   2
  11   4 -10 35.4250 9.63396   1
  11   4 -10 14.5869 4.98128   3
  11   4 -10 21.3998 4.87715   2
  10  -4 -10 8.24006 5.11358   3
  10  -4 -10 18.8922 3.97577   1
  10  -4 -10 9.07477 3.04987   2
  10  -4 -10 9.55807 2.57447   2
 -10  -4  10 3.15708 10.7895   1
  10   4 -10 6.01360 3.65363   2
  10   4 -10 16.7849 4.91486   3
  10   4 -10 11.7520 9.26738   1
   9  -4 -10 0.10112 4.39064   3
  -9  -4  10 8.79170 9.75170   1
   9  -4 -10 1.43605 2.93745   1
   9  -4 -10 1.76830 2.74978   2
   9   4 -10 -1.0047 7.21443   1
   9   4 -10 -0.6959 4.90048   2
   9   4 -10 -3.6992 3.78659   3
   8  -4 -10 3.25981 2.37652   2
   8  -4 -10 -1.2968 5.21010   3
   8  -4 -10 -1.9435 2.67494   1
   8  -4 -10 -3.1635 2.78185   2
  -8  -4  10 -0.5716 9.02300   1
   8   4 -10 -2.3095 6.93754   2
   8   4 -10 -2.2093 6.09189   1
   8   4 -10 1.42200 3.76448   3
  -7  -4  10 17.8843 10.5728   1
   7  -4 -10 13.8144 3.42931   1
   7  -4 -10 13.3642 5.14015   3
   7  -4 -10 17.2828 3.71417   2
   7  -4 -10 13.3094 3.45741   1
   7  -4 -10 11.7269 2.76715   2
   7   4 -10 21.1395 4.32286   3
   7   4 -10 15.1622 7.19724   2
   7   4 -10 19.1085 8.47698   1
   6  -4 -10 4.23117 3.55489   2
   6  -4 -10 10.1450 5.01498   3
   6  -4 -10 8.91202 3.42246   2
   6  -4 -10 7.86527 3.15544   1
  -6  -4  10 -0.8403 8.79783   1
   6  -4 -10 10.3908 3.24688   1
   6   4 -10 14.4289 4.65299   2
   6   4 -10 11.8347 8.37677   1
   6   4 -10 8.27552 3.50362   3
   5  -4 -10 37.3326 4.73983   1
  -5  -4  10 30.7824 11.5279   1
   5  -4 -10 33.2321 4.69541   1
   5  -4 -10 32.0517 4.35314   2
   5   4 -10 37.6239 6.26474   2
   5   4 -10 43.4355 4.61413   3
   5   4 -10 29.3906 9.64446   1
   4  -4 -10 198.317 11.1086   1
   4  -4 -10 227.984 10.9893   2
  -4  -4  10 185.368 20.5351   1
   4  -4 -10 193.176 14.2122   1
  -4  -4  10 211.223 9.89870   3
   4   4 -10 201.047 10.0008   3
   4   4 -10 186.699 17.9915   1
   4   4 -10 229.983 11.8955   2
   3  -4 -10 76.2041 7.60854   1
   3  -4 -10 97.7489 7.62227   2
  -3  -4  10 86.7698 5.82039   3
  -3  -4  10 76.0627 13.3283   1
   3   4 -10 93.3568 8.15804   2
   3   4 -10 81.6618 5.94327   3
   3   4 -10 94.1172 12.9385   1
   2  -4 -10 14.8155 4.44116   1
   2  -4 -10 17.8001 4.51838   1
  -2  -4  10 5.32826 8.96948   1
   2  -4 -10 8.49196 3.97056   2
   2   4 -10 17.6893 4.40342   2
   2   4 -10 10.8564 7.48253   1
   2   4 -10 16.8045 2.97047   3
  -1  -4  10 1.23530 8.15319   1
   1  -4 -10 -2.7115 3.87842   1
   1  -4 -10 0.30350 3.99495   1
   1  -4 -10 2.32479 3.44732   2
   1   4 -10 -0.8150 1.98151   3
   1   4 -10 -0.2702 3.71187   2
   1   4 -10 -0.3892 6.45872   1
   0  -4  10 8.97853 8.35521   1
   0  -4 -10 -0.1553 3.61118   2
   0  -4 -10 2.65563 4.07431   1
   0  -4 -10 -3.9128 4.12757   1
   0   4 -10 0.82626 1.77516   3
   0   4 -10 -0.8430 3.93877   2
   0   4 -10 -5.2654 6.28669   1
   1  -4  10 12.3952 7.99444   1
  -1  -4 -10 0.67562 4.53264   1
  -1  -4 -10 7.34194 4.09595   2
  -1  -4 -10 9.37611 4.85693   1
  -1   4 -10 6.14840 3.93087   2
  -1   4 -10 12.5327 7.02045   1
  -1   4 -10 4.40363 1.48435   3
  -2  -4 -10 22.3127 6.17122   1
  -2  -4 -10 20.3814 4.87872   2
   2  -4  10 27.7670 9.70718   1
  -2  -4 -10 30.1332 6.71619   1
  -2   4 -10 30.2196 8.89827   1
  -2   4 -10 20.0029 5.38786   2
   3  -4  10 9.27580 7.64645   1
  -3  -4 -10 -1.1034 7.59830   2
  -3  -4 -10 0.19578 4.95791   1
  -3  -4 -10 5.21740 6.86149   1
  -3   4 -10 8.66904 6.15679   2
  -3   4 -10 2.15269 6.16401   1
  -4  -4 -10 80.1540 16.6733   1
   4  -4  10 122.652 16.2875   1
  -4  -4 -10 124.381 9.07407   2
  -4  -4 -10 104.862 12.1446   1
  -4   4 -10 104.192 13.9494   1
  -5  -4 -10 40.2666 8.38606   1
  -5  -4 -10 39.4587 7.90970   1
  -5  -4 -10 43.6353 5.51272   2
  -5   4 -10 36.5791 11.0377   1
  -5   4 -10 36.8751 6.46995   2
  -6  -4 -10 57.3348 6.35998   2
  -6  -4 -10 27.0101 7.66664   1
  -6  -4 -10 29.4152 8.44573   1
  -6   4 -10 49.0559 5.83636   2
  -6   4 -10 48.1780 14.0511   1
  -7  -4 -10 8.32417 7.45286   1
  -7  -4 -10 -5.8075 5.89199   1
  -7  -4 -10 7.63118 4.30164   2
  -7   4 -10 7.34616 7.06613   1
  -7   4 -10 -6.5914 5.31233   1
  -7   4 -10 8.01735 4.46600   2
  -8  -4 -10 73.3891 7.18844   2
  -8   4 -10 72.7579 6.89080   2
  -8   4 -10 66.9776 11.2077   1
  -9  -4 -10 7.56359 4.55251   2
  -9   4 -10 16.1346 7.98683   1
  -9   4 -10 3.42417 4.34633   2
 -10  -4 -10 8.32820 4.60981   2
 -10   4 -10 8.19810 4.09558   2
 -10   4 -10 23.3403 9.95168   1
 -11  -4 -10 10.8624 5.00008   2
 -11   4 -10 3.40889 4.02328   2
 -11   4 -10 12.4283 10.3616   1
 -12  -4 -10 6.49562 5.37242   2
 -12   4 -10 -0.8841 4.10019   2
 -12   4 -10 -4.6190 11.1212   1
 -13  -4 -10 95.4712 9.79689   2
 -13   4 -10 92.5695 26.7577   1
 -13   4 -10 94.5715 8.64097   2
 -14  -4 -10 9.94616 6.18366   2
 -14   4 -10 3.56032 3.94354   2
  14  -5 -10 1.43108 4.59868   3
  14   5 -10 -7.5811 3.48148   2
  14   5 -10 2.49580 5.29151   3
  13  -5 -10 5.08343 5.22408   3
  13  -5 -10 12.0491 2.81032   2
  13   5 -10 11.8572 5.42540   3
  13   5 -10 10.4045 4.92467   2
  12  -5 -10 -2.2822 4.63437   3
  12  -5 -10 3.68220 2.86257   2
  12   5 -10 2.06086 3.90075   2
  12   5 -10 2.44608 5.31083   3
  11  -5 -10 17.6223 9.21395   3
  11  -5 -10 7.90533 3.20463   2
  11   5 -10 13.4840 4.70561   2
  11   5 -10 13.1951 5.27871   3
  10  -5 -10 32.8384 4.26265   2
  10   5 -10 22.6759 5.08206   2
  10   5 -10 29.1767 5.36142   3
   9  -5 -10 31.2351 4.56070   2
   9  -5 -10 30.5897 6.92456   3
   9   5 -10 24.5572 4.81900   3
   9   5 -10 36.8295 6.22585   2
   8  -5 -10 3.36213 5.94894   3
   8  -5 -10 3.37730 3.47282   2
   8   5 -10 1.99411 3.86370   3
   8   5 -10 0.12469 3.90585   2
   7  -5 -10 107.112 10.6304   3
   7  -5 -10 115.344 9.13420   2
  -7  -5  10 56.7866 15.1469   1
   7   5 -10 104.981 9.54087   2
   7   5 -10 109.744 8.16904   3
   6  -5 -10 49.2348 7.01420   3
  -6  -5  10 42.7405 13.4926   1
   6   5 -10 44.4195 6.02802   2
   6   5 -10 50.6050 6.46032   3
  -5  -5  10 14.8817 11.4658   1
   5  -5 -10 9.37723 4.50534   2
   5   5 -10 11.6666 4.91935   2
   5   5 -10 7.44343 3.49075   3
  -4  -5  10 26.2457 11.2856   1
   4  -5 -10 18.9720 4.56930   2
   4   5 -10 13.6530 4.91518   2
   4   5 -10 21.3013 3.62167   3
  -3  -5  10 -5.3415 8.68594   1
   3  -5 -10 1.33079 3.95663   2
   3   5 -10 3.79484 4.13923   2
  -2  -5  10 -1.8547 8.37504   1
   2  -5 -10 1.60332 4.25435   2
   2   5 -10 7.13741 2.45157   3
   2   5 -10 7.11488 4.09349   2
  -1  -5  10 46.8481 11.7618   1
   1  -5 -10 56.8067 5.05059   1
   1  -5 -10 37.5764 5.29598   2
   1  -5 -10 45.8779 4.74090   1
   1   5 -10 51.5562 6.05108   2
   1   5 -10 56.6693 3.93159   3
   0  -5 -10 11.6514 3.84455   1
   0  -5 -10 9.23218 4.42359   2
   0  -5 -10 8.75492 4.70578   1
   0  -5  10 12.0741 8.94207   1
   0   5 -10 16.0755 5.15409   2
  -1  -5 -10 37.6178 5.96937   1
   1  -5  10 33.7224 16.5190   1
  -1  -5 -10 34.3134 5.42660   2
  -1   5 -10 25.3572 4.81647   2
  -2  -5 -10 4.10735 4.44675   2
  -2  -5 -10 0.47679 4.93973   1
  -2   5 -10 -6.8590 4.37896   2
  -3  -5 -10 7.46563 5.53205   1
  -3  -5 -10 -2.2712 4.10531   2
  -3   5 -10 4.03310 3.97510   2
  -4  -5 -10 1.50408 4.47906   2
  -4  -5 -10 11.9025 5.88234   1
  -4   5 -10 5.12700 4.43888   2
  -5  -5 -10 0.04710 5.02992   2
  -5   5 -10 1.56537 8.84386   1
  -5   5 -10 6.01408 4.83726   2
  -6  -5 -10 2.54091 4.80720   2
  -6  -5 -10 11.3590 7.40559   1
  -6   5 -10 -8.0134 9.51222   1
  -6   5 -10 3.92755 4.46711   2
  -7  -5 -10 3.43220 5.40899   2
  -7  -5 -10 4.04756 6.73213   1
  -7   5 -10 11.2437 4.69238   2
  -7   5 -10 20.6314 11.0538   1
  -8  -5 -10 -4.1256 4.68368   2
  -8  -5 -10 -5.7741 7.25811   1
  -8   5 -10 -2.1233 4.31109   2
  -8   5 -10 15.2122 11.4521   1
  -9  -5 -10 32.9753 7.72490   2
  -9   5 -10 25.1550 5.52956   2
 -10  -5 -10 8.92866 6.44728   2
 -10   5 -10 5.81712 4.17168   2
 -11  -5 -10 7.01194 5.24838   2
 -11   5 -10 2.58418 3.73828   2
   6  -6 -10 28.2002 6.82310   3
   6  -6 -10 7.78829 4.12753   2
   6   6 -10 11.8572 3.71070   3
   6   6 -10 16.2943 5.86878   2
   5  -6 -10 -2.7649 4.24042   2
   5  -6 -10 10.1872 6.22857   3
   5   6 -10 2.20276 3.08583   3
   5   6 -10 -5.6460 4.83398   2
   4  -6 -10 12.5223 4.88391   2
   4   6 -10 13.9160 5.89991   2
   4   6 -10 8.44664 3.11531   3
   3  -6 -10 3.02876 4.39399   2
   3   6 -10 -6.7284 4.37475   2
   2  -6 -10 2.34980 4.46832   2
   2   6 -10 0.84294 5.95957   2
   1  -6 -10 18.1618 5.52456   2
   1   6 -10 13.4809 7.34547   2
   0  -6 -10 62.8533 7.72659   2
   0   6 -10 39.0864 7.54039   2
  -1  -6 -10 8.13429 7.18398   2
  -1   6 -10 9.31255 6.76809   2
  -2  -6 -10 6.63307 8.10644   2
  -2   6 -10 2.69406 5.83031   2
  -3  -6 -10 10.5619 6.16349   2
  -3   6 -10 8.81689 4.95642   2
  22   0 -11 2.86415 6.63418   3
 -21   0  11 -27.513 10.8394   1
  21   0 -11 -8.5661 6.11051   3
  21   0 -11 1.23238 7.69731   1
  20   0 -11 -2.5549 7.62963   1
  20   0 -11 5.19438 6.06346   3
  19   0 -11 0.33070 7.71516   1
  19   0 -11 1.60699 6.16462   3
  18   0 -11 -0.0980 6.25241   1
  18   0 -11 1.38155 6.22872   3
  17   0 -11 -1.7470 5.15313   3
  17   0 -11 0.20234 5.78832   1
  16   0 -11 -6.1581 4.61162   3
  16   0 -11 1.35660 1.47895   2
 -16   0  11 -1.7269 1.59572   2
  15   0 -11 -1.4453 1.52876   2
  15   0 -11 1.74130 5.07172   3
 -15   0  11 0.07049 2.04113   2
  15   0 -11 13.5084 7.04860   1
 -14   0  11 1.45224 1.98571   2
  14   0 -11 -5.6101 4.95727   3
 -13   0  11 2.51591 2.18154   2
  13   0 -11 4.91532 5.12609   3
  13   0 -11 2.44350 2.17070   2
  13   0 -11 5.53662 7.36803   1
  12   0 -11 12.4635 4.87526   3
 -12   0  11 10.8976 2.55417   2
  12   0 -11 3.85558 7.45826   1
  11   0 -11 3.78419 6.66448   1
  11   0 -11 -0.9307 4.23865   3
  11   0 -11 -0.9648 2.53177   2
 -11   0  11 -2.9947 2.13506   2
 -10   0  11 -0.1282 2.25796   2
  10   0 -11 2.61906 6.21222   1
  10   0 -11 2.53400 2.26781   2
  10   0 -11 -0.4829 4.12706   3
   9   0 -11 -0.1388 2.21981   2
   9   0 -11 4.61978 4.01677   3
   9   0 -11 -3.0348 4.91335   1
  -9   0  11 11.2739 10.6404   1
  -9   0  11 2.58533 2.40027   2
   8   0 -11 6.80493 5.66264   1
   8   0 -11 2.27364 3.84237   3
  -8   0  11 1.07088 6.30704   1
  -8   0  11 -3.4886 2.09252   2
   8   0 -11 4.24831 2.59774   2
   7   0 -11 5.38417 3.85708   3
   7   0 -11 -4.5560 5.47456   1
  -7   0  11 3.12417 6.46810   1
  -7   0  11 5.30891 2.35489   2
   7   0 -11 0.05329 2.32379   2
   6   0 -11 -0.8278 2.45960   2
  -6   0  11 0.41551 2.26452   2
   6   0 -11 1.97522 5.00947   1
  -6   0  11 -0.4407 5.83538   1
   6   0 -11 -1.9927 3.75021   3
   5   0 -11 1.20557 3.92070   3
  -5   0  11 -3.5461 5.56589   1
   5   0 -11 -0.1285 5.92362   1
   5   0 -11 -2.5313 2.57939   2
  -5   0  11 -2.1647 2.22144   2
   4   0 -11 3.44091 2.61508   2
   4   0 -11 8.79904 6.49973   1
  -4   0  11 -0.6973 5.49644   1
  -4   0  11 5.03407 2.57996   2
   3   0 -11 7.34384 6.68724   1
   3   0 -11 2.31284 2.84981   2
  -3   0  11 0.28557 6.18908   1
  -3   0  11 7.42568 2.96777   2
   3   0 -11 4.26877 3.38326   3
   2   0 -11 3.48530 2.68088   2
   2   0 -11 0.67370 5.48231   1
   2   0 -11 -1.0982 3.34807   3
  -2   0  11 8.46010 6.62909   1
  -2   0  11 0.00580 2.36044   2
   1   0 -11 7.17941 4.77925   3
  -1   0  11 7.56693 2.82446   2
   1   0 -11 4.86683 6.03882   1
   1   0 -11 2.28719 2.77821   2
  -1   0  11 2.70475 6.08839   1
   0   0  11 6.24287 2.87154   2
   0   0 -11 2.70233 2.81907   2
  -1   0 -11 -0.5625 2.89307   2
   1   0  11 -2.3022 2.49705   2
  -1   0 -11 3.84279 6.49033   1
   2   0  11 0.42299 2.53215   2
  -2   0 -11 -0.0939 3.31991   2
  -2   0 -11 9.17852 10.9778   1
  -3   0 -11 7.69878 6.36145   1
  -3   0 -11 -1.6061 3.13533   3
  -3   0 -11 -2.3767 2.88877   2
  -3   0 -11 1.00051 7.00146   1
   4   0  11 0.16787 2.54828   2
  -4   0 -11 -2.1616 6.75215   1
  -4   0 -11 2.59763 3.35918   2
  -4   0 -11 1.29011 5.86465   1
  -4   0 -11 3.70179 3.35645   3
  -5   0 -11 1.09766 6.40432   1
  -5   0 -11 -0.8617 4.52602   3
   5   0  11 -0.6796 2.63632   2
  -5   0 -11 0.31834 3.44381   2
  -5   0 -11 -3.8878 6.47446   1
  -6   0 -11 1.17425 3.58099   3
  -6   0 -11 1.06633 6.82466   1
  -6   0 -11 -0.2113 3.25237   2
  -6   0 -11 -4.2219 6.33327   1
   6   0  11 -0.1872 2.73659   2
  -7   0 -11 -3.8995 6.00201   1
  -7   0 -11 -4.0800 3.23799   2
  -7   0 -11 -0.1945 2.88697   3
  -7   0 -11 -3.9098 6.30954   1
  -8   0 -11 -5.2682 5.87690   1
  -8   0 -11 1.84549 2.70082   3
  -8   0 -11 3.89720 3.63306   2
  -8   0 -11 -2.7177 6.14200   1
  -9   0 -11 -0.6024 5.78150   1
  -9   0 -11 -0.8170 3.08604   2
  -9   0 -11 3.23205 2.88310   3
  -9   0 -11 8.77465 7.85913   1
 -10   0 -11 -4.1567 6.83596   1
 -10   0 -11 -4.1312 3.86761   3
 -10   0 -11 12.7463 6.98869   1
 -10   0 -11 0.85879 3.11024   2
 -11   0 -11 1.11570 6.11905   1
 -11   0 -11 2.34836 3.49437   2
 -11   0 -11 10.1657 13.0662   1
 -12   0 -11 -1.2562 3.07888   2
 -12   0 -11 13.5345 9.17592   1
 -12   0 -11 15.6490 7.45543   1
 -13   0 -11 -2.0783 3.18784   2
 -13   0 -11 -13.557 12.6066   1
 -13   0 -11 0.49601 7.75183   1
 -14   0 -11 5.91275 6.66960   2
 -14   0 -11 -7.3281 7.22011   1
 -14   0 -11 -4.5208 8.81805   1
 -15   0 -11 -1.0026 3.50747   2
 -15   0 -11 -2.7321 9.42067   1
 -15   0 -11 -9.2864 10.4966   1
 -16   0 -11 -9.8518 9.08743   1
 -16   0 -11 5.47093 11.2157   1
 -16   0 -11 -4.2821 3.52374   2
 -17   0 -11 -2.3998 3.71878   2
 -17   0 -11 5.79458 12.3227   1
 -17   0 -11 -15.535 8.93595   1
 -18   0 -11 -1.3222 3.56851   2
 -18   0 -11 -1.5091 13.2980   1
 -18   0 -11 -13.682 14.8715   1
 -19   0 -11 -15.512 20.8169   1
 -19   0 -11 -1.5146 3.38853   2
  22  -1 -11 4.73791 6.08319   3
  22   1 -11 6.36062 6.63919   3
 -21  -1  11 -8.3400 16.3686   1
  21  -1 -11 1.76462 5.81762   3
 -21   1  11 4.39136 12.7767   1
  21   1 -11 1.63356 6.59848   3
 -20  -1  11 -7.3488 11.9784   1
  20  -1 -11 9.00079 6.43809   3
  20  -1 -11 7.09713 8.38464   1
 -20   1  11 -6.9830 9.56857   1
  20   1 -11 7.71898 9.08925   1
  20   1 -11 4.20530 6.35944   3
 -19  -1  11 34.8873 11.9938   1
 -19  -1  11 11.6399 3.01995   2
  19  -1 -11 16.6392 7.38445   3
  19  -1 -11 11.1940 8.36191   1
  19   1 -11 12.9567 6.31137   3
  19   1 -11 5.19147 8.45430   1
 -19   1  11 14.6610 9.85080   1
 -18  -1  11 1.18765 2.15004   2
 -18  -1  11 17.2702 10.3069   1
  18  -1 -11 -2.5748 6.16472   3
  18  -1 -11 0.49312 7.25517   1
  18   1 -11 -4.1120 7.15729   1
 -18   1  11 18.7270 9.35287   1
  18   1 -11 -12.938 7.96280   3
 -17  -1  11 77.9913 5.05800   2
  17  -1 -11 88.3914 10.1935   3
 -17  -1  11 82.5274 14.6292   1
  17  -1 -11 44.0266 9.45191   1
  17   1 -11 80.8627 9.81303   3
  17   1 -11 41.3797 11.1642   1
 -17   1  11 63.9083 11.4419   1
  16  -1 -11 0.73932 6.51028   1
 -16  -1  11 1.97293 2.45641   2
 -16  -1  11 15.5093 10.0624   1
  16  -1 -11 7.10603 5.73017   3
  16   1 -11 4.63442 2.20087   2
  16   1 -11 1.41912 5.80355   3
 -16   1  11 1.98036 6.80034   1
  16   1 -11 -1.1710 6.61855   1
  15  -1 -11 39.5253 8.56119   1
  15  -1 -11 41.0907 6.90541   3
 -15  -1  11 47.7117 12.0043   1
 -15  -1  11 49.5341 4.88162   2
  15  -1 -11 43.5184 2.84691   2
  15   1 -11 36.8472 9.65375   1
 -15   1  11 42.8591 15.8250   1
  15   1 -11 41.9050 6.51642   3
  15   1 -11 44.0236 4.31897   2
 -14  -1  11 38.5435 10.8823   1
  14  -1 -11 31.5465 6.47076   3
 -14  -1  11 33.0967 3.62903   2
  14  -1 -11 33.4628 3.13208   2
  14  -1 -11 28.3195 7.92621   1
  14   1 -11 15.3224 7.51867   1
  14   1 -11 28.9668 3.31949   2
  14   1 -11 40.1458 6.66574   3
 -13  -1  11 20.5632 11.9194   1
  13  -1 -11 4.06260 5.40592   3
 -13  -1  11 4.37458 2.65255   2
  13  -1 -11 8.53592 6.34994   1
  13  -1 -11 8.71498 2.08681   2
  13   1 -11 10.6005 7.46595   1
 -13   1  11 14.0952 11.4316   1
  13   1 -11 3.61167 2.38974   2
  13   1 -11 10.6186 4.91399   3
  12  -1 -11 27.4765 5.83563   3
 -12  -1  11 24.6049 3.33615   2
  12  -1 -11 24.9398 4.05454   2
  12  -1 -11 16.7239 7.07601   1
 -12  -1  11 20.0928 11.7286   1
 -12   1  11 36.0860 8.86966   1
  12   1 -11 25.8276 5.40938   3
  12   1 -11 26.6089 3.41061   2
  12   1 -11 10.5013 6.80117   1
  11  -1 -11 57.2919 9.56673   1
  11  -1 -11 69.8028 8.18389   3
 -11  -1  11 75.9158 19.1722   1
 -11  -1  11 78.3555 5.76926   2
  11  -1 -11 76.9586 5.02414   2
  11   1 -11 73.9776 5.61873   2
 -11   1  11 76.0358 4.79171   2
  11   1 -11 74.5718 8.20219   3
 -11   1  11 64.7406 14.0764   1
  11   1 -11 56.0453 11.1927   1
  10  -1 -11 208.167 16.2058   1
  10  -1 -11 227.419 11.6036   3
 -10  -1  11 154.441 25.5994   1
 -10  -1  11 212.640 9.85250   2
  10   1 -11 215.487 18.0501   1
  10   1 -11 220.119 11.6368   3
 -10   1  11 197.234 9.07524   2
  10   1 -11 206.216 9.78946   2
   9  -1 -11 5.14707 4.16918   3
   9  -1 -11 -1.7729 5.48523   1
  -9  -1  11 -17.793 12.2541   1
  -9  -1  11 0.93780 2.85632   2
   9  -1 -11 2.13294 2.37554   2
   9   1 -11 3.03847 2.77019   2
   9   1 -11 2.70416 6.32502   1
  -9   1  11 0.84399 2.05135   2
   9   1 -11 -0.1637 4.36483   3
  -8  -1  11 0.39776 11.6042   1
   8  -1 -11 5.37872 4.34539   3
   8  -1 -11 1.26884 2.39292   2
  -8  -1  11 2.01526 2.84228   2
   8  -1 -11 7.67049 5.74932   1
   8   1 -11 5.31022 2.64503   2
  -8   1  11 1.92746 2.10546   2
   8   1 -11 1.98628 3.87412   3
  -8   1  11 2.28531 6.39250   1
   8   1 -11 8.00826 6.76261   1
  -7  -1  11 -0.5197 8.30853   1
   7  -1 -11 1.44712 2.61620   2
  -7  -1  11 -0.7884 2.67847   2
   7  -1 -11 0.27755 5.15513   1
   7  -1 -11 -0.2167 4.03005   3
   7   1 -11 -2.7760 2.68770   2
   7   1 -11 4.50153 6.51546   1
  -7   1  11 -2.7884 1.96477   2
   7   1 -11 4.68274 3.81095   3
  -7   1  11 6.02319 5.54373   1
  -6  -1  11 12.9082 8.01055   1
   6  -1 -11 14.8530 3.11495   2
   6  -1 -11 5.22770 5.76916   1
   6  -1 -11 10.9108 4.02970   3
  -6  -1  11 13.7610 2.86791   2
  -6   1  11 15.4040 5.87544   1
   6   1 -11 11.3383 4.03043   3
  -6   1  11 17.8649 2.97396   2
   6   1 -11 14.1228 7.23532   1
   6   1 -11 15.3947 3.34685   2
  -5  -1  11 57.2513 10.5646   1
   5  -1 -11 60.7692 6.85123   3
   5  -1 -11 42.3756 8.09368   1
   5  -1 -11 62.5185 5.23123   2
  -5  -1  11 69.2549 5.54135   2
   5   1 -11 66.5166 5.71000   2
  -5   1  11 62.4673 5.06222   2
  -5   1  11 76.1639 9.36199   1
   5   1 -11 66.5060 7.50922   3
   5   1 -11 60.2727 9.78546   1
  -4  -1  11 27.8332 8.28147   1
   4  -1 -11 49.7831 5.61645   3
   4  -1 -11 36.5811 7.07262   1
  -4  -1  11 26.9164 3.33029   2
   4  -1 -11 30.6943 3.35940   2
  -4   1  11 27.5568 3.15150   2
  -4   1  11 37.4716 7.02892   1
   4   1 -11 37.0772 8.37800   1
   4   1 -11 33.5608 3.63618   2
   4   1 -11 43.3638 4.94478   3
   3  -1 -11 2.99728 5.09523   1
  -3  -1  11 0.86128 6.19164   1
  -3  -1  11 1.40481 2.90108   2
   3  -1 -11 -3.0110 3.56998   3
   3  -1 -11 2.26197 2.94423   2
   3   1 -11 3.52329 6.57869   1
  -3   1  11 -0.2034 2.12511   2
   3   1 -11 3.39697 2.91184   2
   2  -1 -11 6.11626 3.90382   3
  -2  -1  11 9.15196 3.06474   2
   2  -1 -11 7.80882 3.31737   2
   2  -1 -11 6.74395 5.35658   1
  -2  -1  11 13.0372 7.89027   1
   2   1 -11 7.07421 7.02062   1
   2   1 -11 12.2810 3.44204   3
   2   1 -11 7.39833 2.95449   2
  -2   1  11 7.74313 2.64266   2
  -1  -1  11 540.944 22.2581   2
   1  -1 -11 572.310 28.4504   1
  -1  -1  11 600.691 29.7160   1
   1  -1 -11 590.898 22.4021   2
   1   1 -11 563.394 22.2473   3
   1   1 -11 555.980 22.3915   2
   1   1 -11 554.124 29.4146   1
  -1   1  11 589.069 22.2671   2
   0  -1 -11 1033.83 36.4603   2
   0  -1 -11 954.287 42.3318   1
   0  -1  11 964.569 43.5102   1
   0  -1  11 943.725 36.2524   2
   0   1  11 937.564 36.1911   2
   0   1 -11 969.997 36.1258   3
   0   1 -11 1001.71 36.4473   2
   0   1 -11 916.138 43.4359   1
  -1  -1 -11 485.656 19.9163   2
  -1  -1 -11 494.888 25.8875   1
   1  -1  11 526.598 27.7372   1
   1  -1  11 537.616 22.4940   2
  -1   1 -11 473.621 19.8661   2
  -1   1 -11 482.555 26.9109   1
  -1   1 -11 506.261 19.5352   3
   1   1  11 480.514 19.7390   2
  -2  -1 -11 120.540 13.6623   1
   2  -1  11 128.297 10.2177   2
  -2  -1 -11 133.757 13.5693   1
  -2  -1 -11 139.532 8.25883   2
  -2   1 -11 139.768 7.81562   2
  -2   1 -11 127.622 7.16306   3
  -2   1 -11 119.368 13.5035   1
  -3  -1 -11 778.574 28.5166   2
  -3  -1 -11 697.395 45.2126   1
   3  -1  11 702.800 28.1937   2
  -3  -1 -11 756.283 35.2808   1
  -3   1 -11 734.936 27.8193   3
  -3   1 -11 759.422 28.4892   2
  -3   1 -11 730.357 35.8829   1
   3   1  11 720.786 28.2452   2
  -4  -1 -11 58.5281 10.0199   1
  -4  -1 -11 53.3707 6.11268   2
   4  -1  11 66.6068 5.64095   2
  -4  -1 -11 51.1384 15.6455   1
  -4   1 -11 55.8603 10.1357   1
   4   1  11 55.0326 5.28507   2
  -4   1 -11 54.4379 4.78875   3
  -4   1 -11 61.4747 5.02993   3
  -4   1 -11 50.3741 9.95911   1
  -4   1 -11 60.3778 5.91765   2
   5  -1  11 320.729 14.2802   2
  -5  -1 -11 321.372 21.9161   1
  -5  -1 -11 344.848 20.9824   1
  -5  -1 -11 356.375 14.8184   2
  -5   1 -11 325.968 21.5604   1
  -5   1 -11 350.568 14.7129   2
   5   1  11 334.774 14.3807   2
  -5   1 -11 340.099 13.8224   3
  -5   1 -11 328.266 13.7767   3
  -5   1 -11 366.546 22.8904   1
  -6  -1 -11 36.4712 4.52832   2
   6  -1  11 45.5659 4.89482   2
  -6  -1 -11 25.3558 7.95552   1
  -6   1 -11 54.3858 5.23827   2
  -6   1 -11 40.0350 10.1213   1
  -6   1 -11 47.4759 4.38211   3
  -6   1 -11 35.4481 4.41910   3
  -6   1 -11 45.5486 9.82617   1
  -7  -1 -11 689.642 25.4379   2
  -7  -1 -11 636.656 33.1415   1
  -7  -1 -11 490.286 35.8238   1
  -7   1 -11 673.122 33.7812   1
  -7   1 -11 644.161 33.9670   1
  -7   1 -11 638.891 24.3522   3
  -7   1 -11 664.559 25.2868   2
  -8  -1 -11 149.462 14.2210   1
  -8  -1 -11 162.932 9.18009   2
  -8  -1 -11 156.668 15.1042   1
  -8   1 -11 135.290 14.7968   1
  -8   1 -11 145.355 7.46108   3
  -8   1 -11 149.159 8.76396   2
  -8   1 -11 159.727 16.4668   1
  -9  -1 -11 -2.0784 6.60713   1
  -9  -1 -11 5.04583 7.18880   1
  -9  -1 -11 5.14497 3.56411   2
  -9   1 -11 3.68098 3.48767   2
  -9   1 -11 11.7045 7.32516   1
  -9   1 -11 3.55727 2.43227   3
  -9   1 -11 5.22408 6.83377   1
 -10  -1 -11 9.72314 7.96615   1
 -10  -1 -11 25.7597 4.65070   2
 -10  -1 -11 29.8090 9.91166   1
 -10   1 -11 13.8686 8.46618   1
 -10   1 -11 16.6870 3.57535   2
 -10   1 -11 25.4392 3.15620   3
 -10   1 -11 19.3640 14.4253   1
 -11  -1 -11 55.6608 10.8664   1
 -11  -1 -11 34.0123 4.58680   2
 -11  -1 -11 31.7600 9.57302   1
 -11   1 -11 23.4819 10.1528   1
 -11   1 -11 44.7184 10.9789   1
 -11   1 -11 41.6127 4.59400   2
 -11   1 -11 45.1446 4.19418   3
 -12  -1 -11 0.66422 7.52561   1
 -12  -1 -11 4.09075 7.21883   1
 -12  -1 -11 9.38548 4.28289   2
 -12   1 -11 8.29542 8.98171   1
 -12   1 -11 6.69018 2.55296   3
 -12   1 -11 6.26675 8.44262   1
 -12   1 -11 1.51167 3.29666   2
 -13  -1 -11 35.3198 10.4429   1
 -13  -1 -11 51.8402 5.63908   2
 -13  -1 -11 44.7246 11.3314   1
 -13   1 -11 38.2063 11.8969   1
 -13   1 -11 33.2719 10.0750   1
 -13   1 -11 39.3797 4.18223   3
 -13   1 -11 37.9172 4.58823   2
 -14  -1 -11 41.8886 5.04574   2
 -14  -1 -11 41.3867 12.6166   1
 -14  -1 -11 46.0080 10.9570   1
 -14   1 -11 54.0729 13.1502   1
 -14   1 -11 46.7530 5.33448   3
 -14   1 -11 54.7017 11.3810   1
 -14   1 -11 38.3475 6.24612   2
 -15  -1 -11 2.50262 3.69564   2
 -15  -1 -11 -2.8797 10.4563   1
 -15  -1 -11 -6.0147 9.61479   1
 -15   1 -11 25.2935 10.7161   1
 -15   1 -11 -3.5448 3.16075   2
 -15   1 -11 -1.2445 10.2122   1
 -16  -1 -11 97.7702 8.22722   2
 -16  -1 -11 101.402 15.6863   1
 -16  -1 -11 84.8584 17.1812   1
 -16   1 -11 95.4046 7.61764   2
 -17  -1 -11 8.78429 4.07947   2
 -17  -1 -11 16.9495 12.0035   1
 -17  -1 -11 8.17414 12.6274   1
 -17   1 -11 5.05162 13.2508   1
 -17   1 -11 11.9055 10.7602   1
 -17   1 -11 5.63372 3.76967   2
 -18  -1 -11 -9.1656 11.4338   1
 -18  -1 -11 4.30300 18.1500   1
 -18  -1 -11 5.24874 3.96505   2
 -18   1 -11 -4.5515 19.4409   1
 -18   1 -11 -1.1296 3.21284   2
  21  -2 -11 1.93447 6.41518   3
 -21   2  11 -4.9227 10.0860   1
  21   2 -11 4.86877 7.14041   3
  21   2 -11 -7.3394 10.2557   1
 -20  -2  11 6.22507 15.7497   1
  20  -2 -11 -1.6952 6.26653   3
  20   2 -11 7.04468 9.09186   1
 -20   2  11 10.3261 8.86477   1
  20   2 -11 -0.2071 6.13684   3
 -19  -2  11 -8.0904 12.1110   1
  19  -2 -11 -2.4564 6.30015   3
  19   2 -11 -1.1896 5.77489   3
 -19   2  11 -4.2351 7.36138   1
  19   2 -11 -11.799 9.12559   1
 -18  -2  11 3.27483 12.7896   1
 -18  -2  11 18.1636 4.51482   2
  18   2 -11 20.0479 6.63143   3
  18   2 -11 14.3782 2.90431   2
  18   2 -11 6.31435 8.71755   1
 -17  -2  11 23.0154 3.63630   2
 -17  -2  11 25.8357 12.5139   1
  17  -2 -11 14.3818 6.12854   3
  17   2 -11 17.5988 9.87974   1
  17   2 -11 29.1703 10.1626   3
  17   2 -11 18.8294 3.17737   2
  16  -2 -11 81.3759 9.58926   3
 -16  -2  11 84.4111 6.37052   2
 -16  -2  11 44.9034 14.1665   1
  16  -2 -11 59.7049 17.1102   1
  16   2 -11 61.1708 12.7622   1
  16   2 -11 73.3503 5.86317   2
  16   2 -11 94.0653 10.7413   3
 -16   2  11 73.6234 9.41780   1
  15  -2 -11 16.0657 5.77021   3
 -15  -2  11 7.14875 3.25213   2
 -15  -2  11 7.25410 9.47148   1
  15  -2 -11 15.8038 9.07216   1
  15   2 -11 6.61325 5.65650   3
  15   2 -11 10.4304 3.03301   2
  15   2 -11 0.30090 12.0112   1
 -15   2  11 8.85624 5.71901   1
  14  -2 -11 9.84112 1.64632   2
  14  -2 -11 7.15545 5.10815   3
 -14  -2  11 14.1433 3.41079   2
  14  -2 -11 12.9626 1.78878   2
 -14  -2  11 9.13490 9.12534   1
  14  -2 -11 6.46598 6.97884   1
 -14   2  11 5.49540 5.19120   1
  14   2 -11 17.8135 9.09567   1
  14   2 -11 14.8354 5.38617   3
  14   2 -11 9.53096 2.95126   2
 -13  -2  11 -0.6431 8.21963   1
  13  -2 -11 -0.8330 1.80263   2
  13  -2 -11 3.98736 5.15261   3
 -13  -2  11 -0.2636 2.64517   2
  13   2 -11 -5.9005 6.81975   1
  13   2 -11 3.54419 4.78842   3
 -13   2  11 -4.5037 4.23756   1
  13   2 -11 -1.9865 2.52901   2
 -12  -2  11 25.8649 9.81543   1
  12  -2 -11 16.9897 6.76986   1
  12  -2 -11 19.0617 5.36109   3
 -12  -2  11 22.8755 3.62891   2
 -12   2  11 12.5464 4.92606   1
  12   2 -11 19.7812 3.66742   2
  12   2 -11 22.4031 5.70377   3
  12   2 -11 8.37276 7.60214   1
 -11  -2  11 2.50781 2.78528   2
  11  -2 -11 2.40187 4.28575   3
  11  -2 -11 2.92104 5.21135   1
  11  -2 -11 1.92298 2.39654   2
 -11  -2  11 -4.9887 8.16033   1
  11   2 -11 0.58371 2.53254   2
 -11   2  11 1.47719 3.90601   1
  11   2 -11 7.77060 4.88464   3
  11   2 -11 -0.4792 5.93973   1
  10  -2 -11 0.93642 4.17269   3
 -10  -2  11 -1.9573 2.55564   2
  10  -2 -11 -0.4114 4.66827   1
 -10  -2  11 5.35843 8.48902   1
  10  -2 -11 -1.4474 2.23858   2
  10   2 -11 -2.0835 6.34072   1
  10   2 -11 0.64514 2.98851   2
  10   2 -11 -1.9593 4.05199   3
 -10   2  11 -3.9887 3.61988   1
  -9  -2  11 71.8776 6.19555   2
  -9  -2  11 69.6842 12.7832   1
   9  -2 -11 78.4131 5.22772   2
   9  -2 -11 60.3986 9.39774   1
   9  -2 -11 72.5017 7.91309   3
   9   2 -11 76.5702 6.28036   2
  -9   2  11 65.4313 7.60766   1
   9   2 -11 83.6748 12.5226   1
   9   2 -11 73.7722 7.73808   3
   8  -2 -11 168.180 8.12847   2
  -8  -2  11 163.947 8.77648   2
   8  -2 -11 163.748 10.2374   3
   8  -2 -11 139.497 12.7913   1
  -8  -2  11 147.674 16.2237   1
   8   2 -11 183.076 16.4719   1
   8   2 -11 169.657 8.97005   2
   8   2 -11 176.608 10.1328   3
   7  -2 -11 49.7133 4.98249   2
   7  -2 -11 43.6908 5.68861   3
  -7  -2  11 36.5407 4.41192   2
   7  -2 -11 29.1159 8.57453   1
  -7  -2  11 35.9669 10.5920   1
   7   2 -11 43.8630 5.33992   3
   7   2 -11 31.4645 9.46672   1
   7   2 -11 34.0267 4.01288   2
  -6  -2  11 4.37540 7.69226   1
   6  -2 -11 2.38805 2.63070   2
  -6  -2  11 1.31402 2.71675   2
   6  -2 -11 4.99822 4.61430   3
   6   2 -11 5.10523 3.96035   3
   6   2 -11 5.56169 3.05225   2
   6   2 -11 13.9017 6.99489   1
   5  -2 -11 30.2998 4.93688   3
   5  -2 -11 26.8640 3.63923   2
  -5  -2  11 24.8938 3.98768   2
   5  -2 -11 20.1542 7.19753   1
  -5  -2  11 24.1677 9.00194   1
   5   2 -11 32.1650 9.27218   1
   5   2 -11 21.6889 5.11057   3
   5   2 -11 30.0277 4.18471   2
   4  -2 -11 15.8694 5.80113   1
   4  -2 -11 20.6689 3.31934   2
  -4  -2  11 17.6571 3.28498   2
  -4  -2  11 16.6167 8.20294   1
   4  -2 -11 13.8745 4.36376   3
   4   2 -11 13.0488 3.16852   2
   4   2 -11 17.1713 7.57635   1
   3  -2 -11 6.08781 2.87199   2
  -3  -2  11 7.31427 2.85717   2
  -3  -2  11 6.65714 7.32632   1
   3  -2 -11 9.79515 5.29984   1
   3   2 -11 9.25168 7.33892   1
   3   2 -11 4.61860 2.89720   3
   3   2 -11 4.52626 3.26698   2
   2  -2 -11 27.6519 6.79099   1
  -2  -2  11 30.0679 9.62573   1
   2  -2 -11 28.4072 3.78833   2
  -2  -2  11 24.7722 3.79290   2
   2   2 -11 28.8809 4.12285   2
   2   2 -11 23.5347 3.50406   3
   2   2 -11 23.9964 7.96924   1
   1  -2 -11 76.3644 6.41753   2
  -1  -2  11 76.5858 6.22389   2
   1  -2 -11 58.8862 8.75571   1
  -1  -2  11 70.9429 11.5024   1
   1   2 -11 76.1150 11.1825   1
   1   2 -11 67.0134 5.33408   3
   1   2 -11 72.3829 6.36412   2
   0  -2  11 284.743 13.6305   2
   0  -2 -11 318.778 18.7183   1
   0  -2 -11 311.648 19.2559   1
   0  -2 -11 321.336 13.8065   2
   0  -2  11 320.070 22.1833   1
   0   2 -11 298.746 20.8151   1
   0   2 -11 318.156 13.8720   2
   0   2 -11 317.510 12.9565   3
  -1  -2 -11 870.450 38.6413   1
  -1  -2 -11 856.082 38.2772   1
   1  -2  11 900.743 41.2033   1
   1  -2  11 794.023 32.5109   2
  -1  -2 -11 873.209 32.6707   2
  -1   2 -11 833.742 31.7650   3
  -1   2 -11 865.971 32.7554   2
  -1   2 -11 863.035 41.1700   1
  -2  -2 -11 59.8900 9.05937   1
  -2  -2 -11 61.6491 6.55126   2
   2  -2  11 77.7464 12.2195   1
  -2  -2 -11 72.0596 9.97138   1
   2  -2  11 45.7145 4.95081   2
  -2   2 -11 65.3792 4.63638   3
  -2   2 -11 66.1714 6.49863   2
  -2   2 -11 73.6563 10.8414   1
   3  -2  11 89.5692 12.1728   1
  -3  -2 -11 82.2673 6.87170   2
  -3  -2 -11 80.8016 11.0966   1
   3  -2  11 58.7163 7.49182   2
  -3  -2 -11 81.0923 10.8963   1
  -3   2 -11 83.7720 6.65574   2
  -3   2 -11 77.3281 4.81948   3
  -3   2 -11 96.2185 12.2731   1
  -4  -2 -11 30.9649 4.20331   2
  -4  -2 -11 37.0247 7.90190   1
  -4  -2 -11 38.0660 8.32167   1
  -4   2 -11 32.6082 8.63471   1
  -4   2 -11 29.6282 3.39693   3
  -4   2 -11 47.8537 5.01795   2
  -4   2 -11 41.2918 9.44216   1
  -4   2 -11 33.3715 3.50657   3
  -5  -2 -11 17.5003 7.56349   1
  -5  -2 -11 0.14112 5.62572   1
  -5  -2 -11 17.3749 3.85874   2
  -5   2 -11 13.5067 7.55090   1
  -5   2 -11 7.97134 7.33735   1
  -5   2 -11 14.9692 3.34407   3
  -5   2 -11 13.5795 3.48768   2
  -5   2 -11 17.8294 2.30208   3
  -6  -2 -11 164.378 9.35215   2
  -6  -2 -11 170.524 15.2049   1
  -6  -2 -11 150.036 14.4305   1
  -6   2 -11 174.218 16.8415   1
  -6   2 -11 139.157 7.99009   3
  -6   2 -11 181.004 9.20070   2
  -6   2 -11 143.837 6.67471   3
  -7  -2 -11 173.443 9.92438   2
  -7  -2 -11 197.925 15.9799   1
  -7  -2 -11 185.250 15.9543   1
  -7   2 -11 171.371 16.8914   1
  -7   2 -11 175.429 9.69171   2
  -7   2 -11 174.766 7.25282   3
  -7   2 -11 167.916 7.19152   3
  -7   2 -11 152.975 16.1529   1
  -8  -2 -11 34.0819 9.15324   1
  -8  -2 -11 47.2563 9.26553   1
  -8  -2 -11 47.3442 4.95257   2
  -8   2 -11 46.6279 2.98981   3
  -8   2 -11 43.6471 10.1287   1
  -8   2 -11 43.0903 3.02128   3
  -8   2 -11 58.8960 10.7038   1
  -8   2 -11 50.1629 5.28825   2
  -9  -2 -11 124.798 14.5756   1
  -9  -2 -11 125.651 8.72324   2
  -9  -2 -11 109.261 13.8021   1
  -9   2 -11 112.788 4.97269   3
  -9   2 -11 123.482 14.9152   1
  -9   2 -11 108.202 14.1750   1
  -9   2 -11 123.748 5.12949   3
  -9   2 -11 115.408 7.98702   2
 -10  -2 -11 197.998 24.4477   1
 -10  -2 -11 189.383 16.2573   2
 -10  -2 -11 230.801 19.9563   1
 -10   2 -11 212.175 18.3729   1
 -10   2 -11 245.764 20.1972   1
 -10   2 -11 222.156 11.1873   2
 -11  -2 -11 36.8230 9.27188   1
 -11  -2 -11 12.9715 9.57205   1
 -11  -2 -11 34.0654 4.91751   2
 -11   2 -11 8.62217 8.70842   1
 -11   2 -11 8.46262 8.91527   1
 -11   2 -11 26.7072 4.19409   2
 -12  -2 -11 67.0831 6.40469   2
 -12  -2 -11 63.1640 12.0220   1
 -12  -2 -11 55.1522 10.6658   1
 -12   2 -11 43.9845 10.5150   1
 -12   2 -11 43.2914 11.4464   1
 -12   2 -11 75.1114 8.48271   2
 -13  -2 -11 -4.7750 7.52049   1
 -13  -2 -11 6.84660 4.22479   2
 -13  -2 -11 6.16683 15.0309   1
 -13   2 -11 3.43491 3.46169   2
 -13   2 -11 -3.9853 8.77940   1
 -13   2 -11 6.38010 9.05953   1
 -14  -2 -11 37.5858 11.0409   1
 -14  -2 -11 28.6234 10.7668   1
 -14  -2 -11 29.1897 4.91844   2
 -14   2 -11 44.5523 10.9007   1
 -14   2 -11 18.4000 10.7858   1
 -14   2 -11 33.7396 4.49028   2
 -15  -2 -11 85.4231 14.2136   1
 -15  -2 -11 97.1307 18.8441   1
 -15  -2 -11 96.9624 8.72269   2
 -15   2 -11 83.2568 7.18798   2
 -15   2 -11 77.8342 15.3736   1
 -15   2 -11 48.9599 20.8583   1
 -16  -2 -11 9.95267 11.1669   1
 -16  -2 -11 1.20522 4.20164   2
 -16   2 -11 3.82605 12.4993   1
 -16   2 -11 4.10239 3.59446   2
 -17  -2 -11 32.2345 5.37849   2
 -17   2 -11 18.9206 4.28356   2
 -19  -3  11 -8.7570 16.5322   1
  19  -3 -11 6.65362 6.36380   3
  19   3 -11 -13.225 11.2101   1
  19   3 -11 4.55100 6.45696   3
  18  -3 -11 -4.5217 5.32080   3
 -18  -3  11 19.8593 16.2275   1
  18  -3 -11 -5.0564 6.22950   1
  18   3 -11 8.53618 6.13735   3
  18   3 -11 2.55736 10.0128   1
  17  -3 -11 16.3285 6.82405   1
  17  -3 -11 -1.0034 5.04531   3
 -17  -3  11 3.16748 13.2707   1
  17   3 -11 12.2779 5.76727   3
  17   3 -11 13.6575 11.3808   1
  17   3 -11 8.65470 3.41087   2
 -16  -3  11 -9.4021 10.4817   1
  16  -3 -11 -5.4227 5.62701   1
  16  -3 -11 -3.2907 5.92496   3
  16   3 -11 -2.1424 5.39315   3
  16   3 -11 -5.5551 7.95959   1
  16   3 -11 -1.4351 2.69512   2
  15  -3 -11 21.8142 6.55693   3
  15  -3 -11 17.2286 6.29675   1
 -15  -3  11 5.23402 10.8332   1
  15   3 -11 10.5942 3.33410   2
  15   3 -11 29.5927 10.1031   1
  15   3 -11 14.2309 5.68790   3
  14  -3 -11 51.4964 6.81123   3
  14  -3 -11 38.8872 7.72145   1
 -14  -3  11 28.0209 12.0790   1
  14  -3 -11 39.7808 3.23941   2
  14  -3 -11 53.9013 3.63008   2
  14   3 -11 51.9528 5.29240   2
  14   3 -11 49.4708 6.77013   3
  14   3 -11 27.2122 11.1327   1
  13  -3 -11 9.62430 5.79466   1
  13  -3 -11 8.87725 2.49947   2
  13  -3 -11 5.50137 5.01177   3
 -13  -3  11 -0.8864 9.33636   1
  13   3 -11 -4.6200 8.29781   1
  13   3 -11 9.29619 5.55636   3
  13   3 -11 5.27470 3.24705   2
  12  -3 -11 34.6171 7.13530   1
  12  -3 -11 41.6135 6.57740   3
 -12  -3  11 14.6837 13.2750   1
  12  -3 -11 27.5366 2.88029   2
  12  -3 -11 32.3942 3.26011   2
  12   3 -11 18.6109 9.15769   1
  12   3 -11 17.0349 3.60766   2
  12   3 -11 41.6667 6.48411   3
  11  -3 -11 1.05826 4.69801   3
  11  -3 -11 4.15680 5.18149   1
  11  -3 -11 -0.2683 1.99871   2
  11  -3 -11 -0.3808 2.30186   2
 -11  -3  11 4.37018 16.2633   1
  11   3 -11 4.06662 4.44796   3
  11   3 -11 9.60756 7.60646   1
  11   3 -11 -3.5972 2.95444   2
  10  -3 -11 11.4344 5.51810   1
  10  -3 -11 7.61200 2.76660   2
  10  -3 -11 11.1654 2.52158   2
 -10  -3  11 25.6225 11.8111   1
  10  -3 -11 7.04792 4.76448   3
  10   3 -11 8.06995 7.56912   1
  10   3 -11 9.87851 4.35396   3
  10   3 -11 2.03445 3.14491   2
   9  -3 -11 64.6607 8.03777   3
   9  -3 -11 58.3097 8.03466   1
  -9  -3  11 31.1671 11.3287   1
   9  -3 -11 70.6424 5.32176   2
   9   3 -11 40.7912 4.73505   2
   9   3 -11 60.6244 7.51201   3
   9   3 -11 82.1042 12.8493   1
  -8  -3  11 7.76551 8.50656   1
   8  -3 -11 13.4570 5.24586   3
   8  -3 -11 2.84406 2.84107   2
   8  -3 -11 5.56491 4.77752   1
   8   3 -11 5.48741 7.33108   1
   8   3 -11 7.44377 4.08914   3
   8   3 -11 5.08747 3.27165   2
  -7  -3  11 39.3875 10.9676   1
   7  -3 -11 46.9704 5.37310   2
   7  -3 -11 38.9647 5.86398   3
   7  -3 -11 38.9942 6.84247   1
   7   3 -11 46.5474 5.29443   3
   7   3 -11 41.9966 10.2890   1
   7   3 -11 50.1890 5.46709   2
   6  -3 -11 0.71729 2.76472   2
   6  -3 -11 1.44128 4.28947   1
  -6  -3  11 9.07768 8.37367   1
   6  -3 -11 9.92889 4.91135   3
   6   3 -11 4.80374 3.37165   2
   6   3 -11 5.71254 3.54767   3
   6   3 -11 -3.2196 6.37142   1
   5  -3 -11 69.4672 6.25287   2
  -5  -3  11 61.3916 12.6482   1
   5  -3 -11 62.5057 8.07648   3
  -5  -3  11 61.9216 5.70303   3
   5  -3 -11 73.6113 9.18805   1
   5   3 -11 72.9823 7.16513   3
   5   3 -11 66.9602 6.85763   2
   5   3 -11 57.1474 11.0639   1
  -4  -3  11 26.2759 9.56489   1
   4  -3 -11 22.6954 5.97032   1
   4  -3 -11 27.3853 3.84647   2
   4   3 -11 16.7707 7.72013   1
   4   3 -11 23.1550 3.96681   3
   4   3 -11 31.0869 4.27090   2
  -3  -3  11 1.76244 7.49342   1
   3  -3 -11 5.82286 3.10509   2
   3  -3 -11 -5.3098 4.16395   1
   3  -3 -11 6.30546 4.94198   1
   3   3 -11 1.09989 6.54959   1
   3   3 -11 4.14421 3.12868   2
   3   3 -11 6.53582 3.12394   3
  -2  -3  11 -3.6884 7.04057   1
   2  -3 -11 6.26992 3.36080   2
   2  -3 -11 -1.9773 4.41501   1
   2  -3 -11 0.88869 4.55452   1
   2   3 -11 3.30700 6.34709   1
   2   3 -11 3.78639 2.84384   3
   2   3 -11 7.31362 3.43699   2
   1  -3 -11 33.9384 6.80817   1
   1  -3 -11 33.2953 4.48495   2
   1  -3 -11 28.5315 6.40418   1
  -1  -3  11 50.4440 16.2022   1
   1   3 -11 34.2302 4.39793   3
   1   3 -11 23.2799 8.33691   1
   1   3 -11 33.7698 4.47337   2
   0  -3 -11 34.9076 7.22182   1
   0  -3 -11 37.3849 7.13136   1
   0  -3 -11 33.6946 4.64416   2
   0   3 -11 32.6490 4.31111   2
   0   3 -11 31.8460 4.01786   3
   0   3 -11 30.9924 8.67210   1
   1  -3  11 4.16773 7.61333   1
  -1  -3 -11 0.98545 5.06582   1
  -1  -3 -11 9.37519 5.41628   1
  -1  -3 -11 2.67478 3.27327   2
  -1   3 -11 2.71308 2.07553   3
  -1   3 -11 -1.8424 5.88646   1
  -1   3 -11 3.64590 3.21234   2
  -2  -3 -11 8.12196 5.77288   1
   2  -3  11 4.28237 8.20603   1
  -2  -3 -11 5.75561 3.55211   2
  -2  -3 -11 4.93464 5.65084   1
  -2   3 -11 9.61511 1.99684   3
  -2   3 -11 7.04754 3.73174   2
  -2   3 -11 12.3496 7.88242   1
   3  -3  11 -3.0659 6.80964   1
  -3  -3 -11 6.70503 5.67737   1
  -3  -3 -11 -0.1946 3.32650   2
  -3  -3 -11 -7.6103 5.30973   1
  -3   3 -11 3.16773 3.17811   2
  -3   3 -11 4.87850 6.48832   1
  -3   3 -11 7.58564 7.13129   1
  -3   3 -11 3.73935 1.44949   3
  -4  -3 -11 14.5419 3.91821   2
  -4  -3 -11 12.1900 6.12845   1
  -4  -3 -11 11.3691 6.38654   1
  -4   3 -11 11.8218 3.89674   2
  -4   3 -11 15.8647 8.96394   1
  -4   3 -11 10.3528 7.56050   1
  -5  -3 -11 14.1531 6.50245   1
  -5  -3 -11 5.53777 3.86622   2
  -5  -3 -11 3.59539 6.56264   1
  -5   3 -11 10.2592 12.1294   1
  -5   3 -11 3.39646 3.21534   2
  -5   3 -11 4.21001 6.95997   1
  -6  -3 -11 332.625 17.1892   2
  -6  -3 -11 292.892 20.4453   1
  -6  -3 -11 336.181 21.3761   1
  -6   3 -11 313.529 21.9074   1
  -6   3 -11 324.823 14.7057   2
  -6   3 -11 284.359 29.8900   1
  -7  -3 -11 94.1622 9.03828   2
  -7  -3 -11 82.1321 11.7035   1
  -7  -3 -11 97.7880 13.1665   1
  -7   3 -11 95.8225 12.9562   1
  -7   3 -11 91.1340 7.79438   2
  -8  -3 -11 25.5735 8.40337   1
  -8  -3 -11 42.4375 5.49865   2
  -8   3 -11 39.8378 9.64755   1
  -8   3 -11 46.7427 7.95415   2
  -9  -3 -11 37.2008 9.62883   1
  -9  -3 -11 37.2330 5.13531   2
  -9  -3 -11 34.6140 8.98391   1
  -9   3 -11 39.1030 10.3431   1
 -10  -3 -11 98.0847 8.71838   2
 -10  -3 -11 83.2638 13.0261   1
 -10  -3 -11 78.8590 13.1992   1
 -10   3 -11 112.032 7.89605   2
 -10   3 -11 94.3008 19.8086   1
 -11  -3 -11 55.8667 11.0291   1
 -11  -3 -11 77.5647 8.16780   2
 -11   3 -11 78.1723 13.4933   1
 -11   3 -11 67.6835 7.23337   2
 -12  -3 -11 -0.2625 4.11924   2
 -12  -3 -11 -1.5759 7.72838   1
 -12   3 -11 6.51876 16.2289   1
 -12   3 -11 2.15114 3.81185   2
 -13  -3 -11 96.6076 9.07616   2
 -13   3 -11 90.0560 7.88793   2
 -14  -3 -11 171.088 10.9089   2
 -14  -3 -11 100.368 16.9671   1
 -14   3 -11 165.758 9.73547   2
 -15  -3 -11 26.3726 5.67626   2
 -15   3 -11 13.6651 4.08629   2
 -16  -3 -11 -1.1034 5.33069   2
 -16   3 -11 0.22777 3.30696   2
  17  -4 -11 -0.4246 4.95170   3
  17  -4 -11 -10.271 10.4333   1
 -17  -4  11 17.8892 21.0222   1
  17   4 -11 -1.4921 3.35191   2
  17   4 -11 -1.8068 5.55680   3
 -16  -4  11 -13.828 14.9940   1
  16  -4 -11 2.00910 5.66609   3
  16   4 -11 -0.0520 5.00230   3
  16   4 -11 -0.8014 3.16705   2
  15  -4 -11 3.19277 5.50762   1
  15  -4 -11 10.2358 5.49573   3
 -15  -4  11 31.0973 24.6095   1
  15   4 -11 5.89516 3.43104   2
  15   4 -11 12.5680 5.33534   3
 -14  -4  11 -12.593 11.0993   1
  14  -4 -11 -0.4277 5.38227   3
  14  -4 -11 3.00403 4.89203   1
  14   4 -11 -1.9696 3.22257   2
  14   4 -11 -0.0793 5.56683   3
  13  -4 -11 -0.8388 4.40464   1
  13  -4 -11 5.43316 2.42926   2
 -13  -4  11 6.58794 12.3862   1
  13  -4 -11 10.0129 7.60542   3
  13  -4 -11 7.31709 2.76898   2
  13   4 -11 6.43595 3.87008   2
  13   4 -11 1.04196 4.76134   3
  13   4 -11 -11.634 9.83601   1
  12  -4 -11 14.6827 5.70879   3
  12  -4 -11 18.0886 3.11009   2
  12  -4 -11 13.9834 2.65126   2
  12  -4 -11 18.1940 5.01925   1
 -12  -4  11 7.03549 11.2102   1
  12   4 -11 11.7981 4.00025   2
  12   4 -11 18.7514 5.23436   3
  12   4 -11 29.0111 10.5085   1
  11  -4 -11 27.0601 5.89671   3
  11  -4 -11 28.3641 4.87886   2
 -11  -4  11 43.1159 13.9668   1
  11  -4 -11 29.0529 3.62371   2
  11  -4 -11 22.3871 5.13159   1
  11   4 -11 22.8897 4.31656   2
  11   4 -11 36.1588 6.16835   3
  11   4 -11 15.4796 12.6398   1
  10  -4 -11 20.8668 4.62539   1
 -10  -4  11 -0.3100 9.43694   1
  10  -4 -11 15.1350 2.90010   2
  10  -4 -11 7.97917 3.12901   2
  10  -4 -11 21.4803 6.09340   3
  10   4 -11 15.8967 4.65536   2
  10   4 -11 10.5833 4.68311   3
   9  -4 -11 23.2957 4.70089   1
  -9  -4  11 30.4089 10.9519   1
   9  -4 -11 23.6899 3.82249   2
   9  -4 -11 23.0314 6.06728   3
   9  -4 -11 18.7767 3.10936   2
   9   4 -11 21.3481 4.61312   3
   9   4 -11 21.3280 4.44170   2
   9   4 -11 34.5479 9.58583   1
   8  -4 -11 61.3677 6.16817   2
   8  -4 -11 60.6025 6.67340   1
   8  -4 -11 48.0863 6.53430   3
  -8  -4  11 43.3816 12.4114   1
   8   4 -11 44.9576 11.6379   1
   8   4 -11 40.7197 5.65577   2
   8   4 -11 67.5447 7.15123   3
  -7  -4  11 47.1968 12.2345   1
   7  -4 -11 55.9357 7.07559   3
   7  -4 -11 63.0351 6.32194   2
   7  -4 -11 52.2623 6.63693   1
   7   4 -11 44.8219 5.25630   2
   7   4 -11 58.0141 6.64090   3
   7   4 -11 39.1116 10.4194   1
   6  -4 -11 36.5342 4.90479   2
  -6  -4  11 24.9902 10.5178   1
   6  -4 -11 40.6053 6.58858   3
   6  -4 -11 43.3966 6.29679   1
   6  -4 -11 35.7253 5.37071   1
   6   4 -11 42.6959 5.85662   2
   6   4 -11 30.5076 9.32757   1
   6   4 -11 35.0987 4.63807   3
  -5  -4  11 42.4747 11.9959   1
   5  -4 -11 42.1321 5.05675   2
   5  -4 -11 37.7040 5.22341   1
   5  -4 -11 45.5725 5.81359   1
   5   4 -11 31.5076 4.13318   3
   5   4 -11 31.8086 5.42545   2
   5   4 -11 27.3750 9.50475   1
   4  -4 -11 9.77353 4.78032   1
   4  -4 -11 8.45147 4.37564   1
  -4  -4  11 9.66769 9.81459   1
   4  -4 -11 9.69217 4.10851   2
   4   4 -11 11.5218 4.28222   2
   4   4 -11 9.84106 8.61057   1
   3  -4 -11 19.5001 4.95576   1
   3  -4 -11 11.2280 3.69427   2
  -3  -4  11 19.7366 9.75226   1
   3   4 -11 16.1938 4.31780   2
   3   4 -11 15.9488 7.88091   1
   2  -4 -11 2.80690 4.19432   1
   2  -4 -11 4.05089 3.98933   2
  -2  -4  11 -3.4442 7.68143   1
   2  -4 -11 0.77598 4.80349   1
   2   4 -11 1.77428 2.31904   3
   2   4 -11 -2.1374 3.75243   2
   2   4 -11 -4.3645 6.89877   1
   1  -4 -11 0.05411 3.36347   2
   1  -4 -11 -0.3049 7.22103   1
  -1  -4  11 12.8667 8.40526   1
   1  -4 -11 6.90560 4.53103   1
   1   4 -11 0.19984 1.97889   3
   1   4 -11 0.45617 7.40245   1
   1   4 -11 -3.0907 3.87729   2
   0  -4 -11 3.87298 4.83485   1
   0  -4 -11 13.0592 5.51817   2
   0  -4  11 8.85582 8.13781   1
   0   4 -11 21.1727 7.84556   1
   0   4 -11 -0.4245 4.19602   2
   0   4 -11 6.63740 1.98090   3
   1  -4  11 8.33211 8.12706   1
  -1  -4 -11 0.23195 5.39630   1
  -1  -4 -11 -1.1822 5.35364   2
  -1  -4 -11 7.60943 5.53395   1
  -1   4 -11 6.02101 3.97992   2
  -1   4 -11 -0.3379 7.41401   1
  -1   4 -11 4.23723 1.42597   3
  -2  -4 -11 -11.886 4.54212   1
   2  -4  11 6.57616 8.87312   1
  -2  -4 -11 5.05270 5.60171   1
  -2  -4 -11 -7.4717 4.05346   2
  -2   4 -11 3.19778 6.68072   1
  -2   4 -11 4.23830 6.70998   1
  -2   4 -11 -6.7918 3.89414   2
  -3  -4 -11 88.9145 11.1839   1
   3  -4  11 78.0284 14.0891   1
  -3  -4 -11 86.9013 11.5587   1
  -3  -4 -11 101.806 8.51376   2
  -3   4 -11 104.330 8.58785   2
  -3   4 -11 90.9322 21.6647   1
  -3   4 -11 83.7422 12.9307   1
  -4  -4 -11 14.9231 4.75233   2
  -4  -4 -11 20.3647 6.93035   1
  -4  -4 -11 8.14774 6.57009   1
  -4   4 -11 27.1819 5.26111   2
  -4   4 -11 9.60439 8.71847   1
  -4   4 -11 13.3488 12.2604   1
  -5  -4 -11 22.4416 7.26840   1
  -5  -4 -11 22.3268 4.77493   2
  -5   4 -11 22.5822 9.69426   1
  -5   4 -11 31.0690 5.08227   2
  -5   4 -11 27.8868 9.51816   1
  -6  -4 -11 53.9538 9.72127   1
  -6  -4 -11 45.6290 5.92129   2
  -6   4 -11 44.2197 11.1613   1
  -6   4 -11 45.6250 5.39648   2
  -6   4 -11 47.2243 10.6077   1
  -7  -4 -11 95.5490 12.8790   1
  -7  -4 -11 92.8127 9.08105   2
  -7   4 -11 122.146 18.0755   1
  -7   4 -11 123.569 9.06894   2
  -7   4 -11 85.0550 20.8151   1
  -8  -4 -11 17.4677 5.03785   2
  -8  -4 -11 12.6569 8.23974   1
  -8   4 -11 13.5175 4.47484   2
  -9  -4 -11 32.4832 5.81895   2
  -9   4 -11 14.3879 4.44187   2
 -10  -4 -11 42.0931 6.34424   2
 -10  -4 -11 26.7609 9.54603   1
 -10   4 -11 34.1580 5.14304   2
 -11  -4 -11 -2.2121 8.66273   1
 -11  -4 -11 -1.0439 4.42665   2
 -11   4 -11 -18.806 16.0647   1
 -11   4 -11 2.77223 4.32871   2
 -12  -4 -11 -0.8750 4.79541   2
 -12   4 -11 -0.8650 3.86426   2
 -13   4 -11 134.526 9.63466   2
  13  -5 -11 6.33933 5.83296   3
  13  -5 -11 5.42921 2.59554   2
  13   5 -11 4.94800 4.85501   2
  13   5 -11 4.56447 5.13606   3
  12  -5 -11 18.1235 3.28159   2
  12  -5 -11 8.79605 5.35516   3
  12   5 -11 22.2306 5.67151   3
  12   5 -11 17.9641 5.25061   2
  11  -5 -11 2.90639 5.27066   3
  11  -5 -11 1.63520 3.18028   2
  11   5 -11 4.45140 7.31882   3
  11   5 -11 -0.9732 3.68517   2
  10  -5 -11 5.93067 6.13086   3
  10  -5 -11 11.2850 3.83598   2
  10   5 -11 18.3306 4.65728   3
  10   5 -11 14.2494 5.54888   2
   9  -5 -11 8.97606 6.31739   3
   9   5 -11 17.7786 4.51062   3
   9   5 -11 19.9399 5.06653   2
   8  -5 -11 4.64522 5.91011   3
   8  -5 -11 -3.5177 3.96401   2
   8   5 -11 -1.0561 3.68739   3
   8   5 -11 -1.0996 3.95683   2
   7  -5 -11 -1.2639 5.61297   3
   7  -5 -11 5.29516 3.91293   2
   7   5 -11 0.15030 3.67118   3
   7   5 -11 0.95564 4.54614   2
   6  -5 -11 45.7397 5.50095   2
   6  -5 -11 56.9171 7.82142   3
   6   5 -11 56.2048 7.14522   2
   6   5 -11 58.4584 6.38292   3
   5  -5 -11 13.4775 4.17907   2
   5   5 -11 14.4294 3.67919   3
   5   5 -11 9.83144 5.30845   2
   4  -5 -11 5.51713 4.22395   2
   4   5 -11 0.22787 2.78254   3
   4   5 -11 2.29056 4.68663   2
   3  -5 -11 -5.2489 3.96370   2
   3   5 -11 -0.4913 4.30869   2
   2  -5 -11 28.2160 5.11563   2
   2   5 -11 23.6595 2.87998   3
   2   5 -11 20.4105 4.75832   2
   1  -5 -11 5.67458 4.14889   2
   1  -5 -11 8.36780 3.92688   1
   1   5 -11 5.71258 1.90377   3
   1   5 -11 7.39686 4.46225   2
   0  -5 -11 0.40378 4.50561   2
   0  -5 -11 6.28233 4.14606   1
   0   5 -11 -1.1204 4.62128   2
  -1  -5 -11 -4.4735 4.41655   1
  -1  -5 -11 4.15171 4.84011   2
  -1   5 -11 -5.7149 9.11071   1
  -1   5 -11 2.72126 4.12325   2
  -2  -5 -11 -7.6812 4.91222   1
  -2  -5 -11 0.44116 4.93784   2
  -2   5 -11 9.68009 5.10538   2
  -2   5 -11 10.2384 10.2828   1
  -3  -5 -11 40.6276 6.36767   2
  -3  -5 -11 25.2873 7.35442   1
  -3   5 -11 28.3722 5.19491   2
  -4  -5 -11 2.17167 6.19112   1
  -4  -5 -11 3.84612 4.96495   2
  -4   5 -11 -0.7558 4.44777   2
  -5  -5 -11 16.2621 5.34459   2
  -5  -5 -11 21.0991 7.72790   1
  -5   5 -11 29.0236 6.01461   2
  -6  -5 -11 1.40221 5.36635   2
  -6   5 -11 0.17285 16.0576   1
  -6   5 -11 -2.0704 4.77782   2
  -7  -5 -11 5.25907 5.59953   2
  -7   5 -11 4.41819 4.89795   2
  -8  -5 -11 -1.1624 7.89411   2
  -8   5 -11 7.30379 5.07836   2
  -9  -5 -11 -0.4813 4.54998   2
  -9   5 -11 1.50216 4.56475   2
  22   0 -12 -1.7128 7.24962   3
  21   0 -12 6.84351 6.68237   3
 -20   0  12 -9.6510 12.4092   1
  20   0 -12 1.03326 9.86713   1
  20   0 -12 15.3483 6.63175   3
  19   0 -12 28.3798 7.95240   3
 -19   0  12 -0.9158 10.8203   1
  19   0 -12 30.0470 10.6555   1
  18   0 -12 16.0900 9.46633   1
 -18   0  12 5.76444 9.78740   1
  18   0 -12 39.8725 7.40717   3
  17   0 -12 37.8212 6.80442   3
  17   0 -12 33.6468 9.59376   1
  17   0 -12 35.2109 2.89061   2
  16   0 -12 -4.4031 5.46995   3
  16   0 -12 -0.9286 2.42710   2
 -16   0  12 -8.3714 9.08064   1
  16   0 -12 5.71184 7.51067   1
  15   0 -12 4.50332 8.12021   1
  15   0 -12 -0.7747 1.86883   2
 -15   0  12 1.05682 1.96788   2
  15   0 -12 9.07339 5.48885   3
  14   0 -12 48.4608 4.58935   2
  14   0 -12 50.5724 6.57316   3
 -14   0  12 56.7237 4.33320   2
  14   0 -12 35.7360 9.71659   1
 -13   0  12 29.6957 3.15885   2
  13   0 -12 22.7910 5.76354   3
  13   0 -12 26.4412 3.14516   2
  12   0 -12 312.880 13.2647   2
  12   0 -12 327.719 16.0156   3
  12   0 -12 229.228 30.3441   1
 -12   0  12 343.948 13.3299   2
  11   0 -12 46.4211 9.29635   1
  11   0 -12 64.3496 7.29229   3
  11   0 -12 55.4888 5.08019   2
 -11   0  12 50.0682 5.00329   2
 -10   0  12 17.5438 3.08276   2
  10   0 -12 21.2546 3.05073   2
  10   0 -12 17.4041 5.24600   3
  10   0 -12 2.62155 6.21245   1
   9   0 -12 26.8590 7.32710   1
   9   0 -12 32.7301 5.32493   3
  -9   0  12 24.2641 3.16464   2
   9   0 -12 21.7514 3.20669   2
  -9   0  12 26.2591 14.5532   1
  -8   0  12 189.305 8.75551   2
   8   0 -12 174.600 8.71079   2
   8   0 -12 168.742 14.7080   1
  -8   0  12 130.636 17.7520   1
   8   0 -12 183.637 10.5292   3
  -7   0  12 23.7274 3.55592   2
   7   0 -12 22.3280 3.34281   2
   7   0 -12 15.3629 4.70135   3
   7   0 -12 26.3205 7.39127   1
  -7   0  12 5.02039 7.37115   1
  -6   0  12 616.199 30.6691   1
   6   0 -12 591.555 22.9975   2
   6   0 -12 563.190 30.3007   1
  -6   0  12 604.886 22.9837   2
   6   0 -12 583.450 23.9140   3
   5   0 -12 34.9493 4.99040   3
   5   0 -12 51.5176 9.95281   1
   5   0 -12 46.0697 5.18569   2
  -5   0  12 40.2818 8.94798   1
  -5   0  12 42.4105 4.30858   2
   4   0 -12 86.8329 7.36348   3
  -4   0  12 80.5856 6.27107   2
   4   0 -12 49.9622 9.84859   1
  -4   0  12 102.817 13.0642   1
   4   0 -12 74.0245 6.36442   2
  -3   0  12 2024.27 80.3693   1
   3   0 -12 1888.27 82.3856   1
   3   0 -12 2030.72 73.3329   2
   3   0 -12 2067.78 73.7869   3
  -3   0  12 2026.82 73.3024   2
  -2   0  12 515.273 27.0726   1
   2   0 -12 544.573 20.9390   2
   2   0 -12 523.915 21.2554   3
  -2   0  12 506.695 21.4487   2
  -1   0  12 380.567 21.9112   1
  -1   0  12 312.025 17.5155   2
   1   0 -12 351.474 23.5432   1
   1   0 -12 366.191 15.2730   2
   1   0 -12 379.237 15.7743   3
   0   0 -12 720.101 28.7011   3
   0   0 -12 738.709 27.5222   2
   0   0  12 688.591 27.3461   2
   0   0 -12 685.915 35.9228   1
  -1   0 -12 896.380 33.7199   2
  -1   0 -12 896.208 51.9951   1
  -1   0 -12 920.437 38.1725   3
   1   0  12 838.275 33.4753   2
   2   0  12 2.99731 2.84328   2
  -2   0 -12 14.2970 7.92585   1
  -2   0 -12 4.00126 3.37537   2
  -3   0 -12 549.526 21.4432   2
  -3   0 -12 575.548 29.1025   1
  -3   0 -12 553.914 29.5797   1
   3   0  12 474.144 21.0188   2
  -3   0 -12 519.638 21.1294   3
  -4   0 -12 303.951 20.1414   1
  -4   0 -12 279.325 12.6451   2
  -4   0 -12 242.929 12.0688   3
  -4   0 -12 275.597 19.5147   1
  -5   0 -12 1185.94 52.4512   1
  -5   0 -12 1180.22 52.5408   1
  -5   0 -12 1176.77 43.6013   2
  -5   0 -12 1105.83 43.2858   3
  -6   0 -12 688.697 35.3437   1
  -6   0 -12 664.828 26.8132   3
  -6   0 -12 663.177 26.7412   2
  -6   0 -12 721.435 36.8462   1
  -7   0 -12 1.47796 7.05124   1
  -7   0 -12 16.2921 3.77211   2
  -8   0 -12 0.45057 3.26698   2
  -8   0 -12 1.97712 6.43625   1
  -8   0 -12 1.74476 7.09468   1
  -9   0 -12 165.932 9.27237   2
  -9   0 -12 144.190 16.0078   1
  -9   0 -12 145.108 16.6540   1
 -10   0 -12 28.4586 4.72802   2
 -10   0 -12 21.6570 9.82907   1
 -10   0 -12 13.3257 8.12364   1
 -11   0 -12 -7.5389 6.79092   1
 -11   0 -12 -1.6870 5.75601   2
 -11   0 -12 5.57512 9.42177   1
 -12   0 -12 1.60690 3.82344   2
 -12   0 -12 -14.165 8.59153   1
 -13   0 -12 84.0261 13.8489   1
 -13   0 -12 92.9775 7.57819   2
 -13   0 -12 93.5227 15.1988   1
 -14   0 -12 233.983 12.0542   2
 -14   0 -12 239.673 22.9623   1
 -15   0 -12 150.345 19.7385   1
 -15   0 -12 135.738 9.25296   2
 -15   0 -12 123.615 16.9061   1
 -16   0 -12 144.759 9.43668   2
 -16   0 -12 129.400 18.2506   1
 -16   0 -12 169.120 23.3066   1
 -17   0 -12 59.7669 16.2337   1
 -17   0 -12 58.3683 6.21117   2
 -18   0 -12 8.48971 23.3701   1
  21  -1 -12 -0.1740 6.60485   3
  21   1 -12 -0.3915 6.18025   3
 -20  -1  12 1.50250 13.5296   1
  20  -1 -12 -3.0432 6.63956   3
 -20   1  12 -7.7005 11.9243   1
  20   1 -12 -0.6928 7.07703   3
  20   1 -12 -11.515 8.61919   1
  19  -1 -12 4.15529 8.72858   1
  19  -1 -12 10.9066 6.64915   3
 -19  -1  12 1.62984 12.5348   1
 -19   1  12 2.12302 10.2689   1
  19   1 -12 1.50174 6.06340   3
  19   1 -12 29.0177 11.4898   1
  18  -1 -12 29.9164 6.85083   3
  18  -1 -12 19.3973 8.84627   1
 -18  -1  12 46.1803 4.06671   2
 -18  -1  12 39.5126 11.8312   1
 -18   1  12 37.0140 10.7125   1
  18   1 -12 37.7108 7.94012   3
  18   1 -12 25.3645 2.98285   2
  18   1 -12 15.7969 10.7050   1
  17  -1 -12 -3.6156 5.91274   3
  17  -1 -12 -3.0881 5.80931   1
 -17  -1  12 -5.6455 9.48216   1
 -17  -1  12 0.03286 2.24102   2
  17   1 -12 0.18230 8.60406   1
  17   1 -12 5.92631 8.90211   3
 -17   1  12 5.48151 7.49192   1
  17   1 -12 -0.7969 1.90241   2
  16  -1 -12 1.11697 1.12995   2
  16  -1 -12 -5.8288 6.38935   1
  16  -1 -12 2.35675 5.19797   3
 -16  -1  12 0.29528 2.30210   2
 -16  -1  12 13.2825 10.4680   1
  16   1 -12 -1.0841 1.99693   2
  16   1 -12 8.51561 8.91803   1
  16   1 -12 4.08842 5.96019   3
 -16   1  12 5.43078 7.31354   1
  15  -1 -12 5.75107 1.77324   2
 -15  -1  12 6.73044 2.70884   2
  15  -1 -12 6.20182 6.32315   1
 -15  -1  12 20.7900 10.2073   1
  15  -1 -12 8.83444 5.31589   3
 -15   1  12 2.46255 6.77692   1
  15   1 -12 6.37753 2.45807   2
  15   1 -12 9.09147 5.46874   3
  15   1 -12 8.93885 7.24431   1
 -14  -1  12 19.4254 13.1047   1
  14  -1 -12 1.45098 5.05514   3
  14  -1 -12 2.34749 6.37560   1
 -14  -1  12 0.88621 2.53707   2
  14  -1 -12 2.30876 2.25029   2
  14   1 -12 4.24553 7.31729   1
 -14   1  12 -7.0873 6.37253   1
  14   1 -12 2.60736 2.40247   2
  14   1 -12 7.22217 5.57781   3
 -13  -1  12 7.43720 11.5950   1
 -13  -1  12 20.6431 3.15999   2
  13  -1 -12 16.2971 5.68732   3
  13  -1 -12 22.9931 7.29565   1
  13  -1 -12 16.2703 2.69283   2
  13   1 -12 17.2471 3.06531   2
  13   1 -12 14.0594 7.24936   1
 -13   1  12 16.1761 8.42603   1
  13   1 -12 19.0004 5.52057   3
  12  -1 -12 4.84793 4.94263   3
  12  -1 -12 -1.3068 5.76992   1
 -12  -1  12 5.12244 11.7495   1
 -12  -1  12 5.20556 2.79903   2
  12  -1 -12 5.54811 2.52382   2
  12   1 -12 3.30072 2.56273   2
  12   1 -12 7.00729 5.17125   3
  12   1 -12 3.50082 7.12184   1
  11  -1 -12 6.20977 2.49348   2
 -11  -1  12 5.66310 2.79374   2
  11  -1 -12 1.87333 5.42382   1
  11  -1 -12 1.80187 4.60749   3
 -11  -1  12 17.2432 14.2487   1
  11   1 -12 9.79942 4.58387   3
 -11   1  12 4.91055 2.20145   2
  11   1 -12 2.53679 2.61576   2
 -11   1  12 5.88076 10.4227   1
  11   1 -12 0.33261 6.22486   1
  10  -1 -12 22.9002 3.07914   2
 -10  -1  12 23.6287 14.5573   1
  10  -1 -12 17.0861 7.14342   1
  10  -1 -12 21.1638 5.09554   3
 -10  -1  12 24.0735 3.55530   2
 -10   1  12 18.0032 2.81621   2
  10   1 -12 17.1058 8.16734   1
  10   1 -12 32.5942 5.71310   3
  10   1 -12 20.5275 3.23392   2
 -10   1  12 17.4823 7.19006   1
   9  -1 -12 5.35722 6.09865   1
  -9  -1  12 25.2123 11.8003   1
   9  -1 -12 13.1435 4.76128   3
   9  -1 -12 18.5422 2.96272   2
  -9  -1  12 10.7463 3.13886   2
  -9   1  12 16.0954 9.80652   1
   9   1 -12 10.0212 4.26094   3
  -9   1  12 9.10204 2.50264   2
   9   1 -12 7.62519 3.20803   2
   9   1 -12 9.45466 6.86527   1
  -8  -1  12 199.414 20.9425   1
  -8  -1  12 182.531 9.33120   2
   8  -1 -12 140.744 14.4911   1
   8  -1 -12 182.828 10.6494   3
   8  -1 -12 189.777 8.85585   2
   8   1 -12 171.986 16.0855   1
  -8   1  12 189.234 8.71971   2
   8   1 -12 184.753 10.6356   3
   8   1 -12 179.914 9.23735   2
   7  -1 -12 96.6296 11.9927   1
  -7  -1  12 89.6229 6.84320   2
  -7  -1  12 90.6759 13.7746   1
   7  -1 -12 112.384 8.38158   3
   7  -1 -12 100.945 6.42323   2
  -7   1  12 96.9858 6.22198   2
   7   1 -12 99.0958 8.12568   3
   7   1 -12 90.6679 6.76058   2
   7   1 -12 103.306 13.7886   1
  -7   1  12 82.7142 12.5113   1
   6  -1 -12 136.814 13.3697   1
  -6  -1  12 139.852 16.0655   1
   6  -1 -12 130.302 7.53022   2
   6  -1 -12 136.382 9.17003   3
  -6  -1  12 126.423 9.48662   2
   6   1 -12 124.208 14.3986   1
   6   1 -12 137.376 8.81299   3
   6   1 -12 133.682 7.72981   2
  -6   1  12 137.468 12.5952   1
  -6   1  12 123.014 7.31659   2
   5  -1 -12 -0.2472 5.68446   1
  -5  -1  12 -2.8155 7.39482   1
   5  -1 -12 -0.6443 2.77088   2
   5  -1 -12 1.68906 4.48713   3
  -5   1  12 -1.2033 4.88733   1
   5   1 -12 1.63882 6.11884   1
   5   1 -12 5.49343 3.38248   2
   5   1 -12 3.71278 3.86814   3
  -5   1  12 -0.7455 2.58178   2
  -4  -1  12 318.613 16.3460   2
  -4  -1  12 294.715 20.5739   1
   4  -1 -12 276.979 19.3011   1
   4  -1 -12 308.779 13.2761   2
   4  -1 -12 324.152 14.5336   3
  -4   1  12 309.350 13.1282   2
   4   1 -12 303.861 13.8398   3
   4   1 -12 307.712 13.5135   2
   4   1 -12 320.298 21.8563   1
   3  -1 -12 9.56616 3.50121   2
   3  -1 -12 7.30194 4.38166   3
   3  -1 -12 9.63215 5.91131   1
  -3  -1  12 1.67263 6.70906   1
  -3  -1  12 8.54245 3.17301   2
   3   1 -12 15.1398 3.71410   2
   3   1 -12 1.65611 6.30835   1
  -3   1  12 12.9120 3.20649   2
   2  -1 -12 138.446 7.98142   2
   2  -1 -12 136.448 9.15790   3
  -2  -1  12 131.976 7.92857   2
  -2  -1  12 139.761 14.5340   1
   2  -1 -12 142.318 13.6764   1
   2   1 -12 131.259 8.08466   2
   2   1 -12 152.940 14.6485   1
   2   1 -12 133.831 8.16817   3
   1  -1 -12 363.977 22.3190   1
  -1  -1  12 377.408 15.7774   2
  -1  -1  12 407.728 24.4460   1
   1  -1 -12 378.092 16.6011   3
   1  -1 -12 411.022 16.0381   2
   1   1 -12 343.776 15.8445   2
  -1   1  12 380.175 15.7788   2
   1   1 -12 357.464 23.1848   1
   1   1 -12 367.438 16.6104   3
   0  -1 -12 28.5428 7.97900   1
   0  -1 -12 18.5301 3.92109   2
   0  -1  12 18.4190 3.34732   2
   0  -1  12 24.1735 8.73053   1
   0   1 -12 26.5190 9.18563   1
   0   1 -12 26.4103 3.88637   2
   0   1  12 36.8258 3.99149   2
   1  -1  12 178.820 9.52367   2
  -1  -1 -12 201.659 10.0590   2
   1  -1  12 221.549 17.6837   1
  -1  -1 -12 178.355 15.0511   1
   1   1  12 186.253 9.61507   2
  -1   1 -12 205.817 9.56733   3
  -1   1 -12 211.181 17.8272   1
  -1   1 -12 205.548 10.1481   2
  -2  -1 -12 14.8568 7.49208   1
  -2  -1 -12 7.31078 3.72234   2
  -2  -1 -12 12.3029 7.25267   1
   2  -1  12 12.9889 3.31658   2
  -2   1 -12 36.1295 9.42776   1
  -2   1 -12 17.5805 3.37357   3
   2   1  12 16.3588 3.33402   2
  -2   1 -12 17.1691 3.63544   2
  -3  -1 -12 126.995 8.14905   2
  -3  -1 -12 133.397 13.8181   1
  -3  -1 -12 121.624 13.9336   1
  -3   1 -12 115.661 7.02047   3
  -3   1 -12 114.817 13.6319   1
  -3   1 -12 127.692 13.9902   1
  -3   1 -12 141.976 8.02307   2
  -4  -1 -12 41.6625 4.62405   2
  -4  -1 -12 38.0573 8.59778   1
  -4  -1 -12 51.5973 9.76658   1
  -4   1 -12 39.5280 4.65810   3
  -4   1 -12 47.0856 9.71815   1
  -4   1 -12 43.6019 4.76541   3
  -4   1 -12 35.8056 4.46162   2
  -4   1 -12 45.0187 9.80850   1
  -5  -1 -12 77.1253 14.7933   1
  -5  -1 -12 65.4598 11.1681   1
  -5  -1 -12 67.1414 6.58240   2
  -5   1 -12 63.9793 11.2577   1
  -5   1 -12 67.8618 5.51255   3
  -5   1 -12 82.6650 6.77971   2
  -5   1 -12 56.9442 10.7636   1
  -5   1 -12 71.5512 5.38521   3
  -6  -1 -12 22.9724 8.29645   1
  -6  -1 -12 13.4569 3.82908   2
  -6  -1 -12 9.56579 7.18526   1
  -6   1 -12 17.1224 9.36841   1
  -6   1 -12 29.8506 4.25146   2
  -6   1 -12 19.7635 3.22098   3
  -6   1 -12 20.3552 8.23096   1
  -6   1 -12 26.9658 3.52924   3
  -7  -1 -12 -2.0014 6.86131   1
  -7  -1 -12 -4.2266 5.98065   1
  -7  -1 -12 2.31809 3.63905   2
  -7   1 -12 -2.7517 2.14765   3
  -7   1 -12 -13.605 5.90538   1
  -7   1 -12 -4.5275 3.02487   2
  -7   1 -12 1.99168 6.64476   1
  -7   1 -12 -2.8713 2.54718   3
  -8  -1 -12 30.3197 4.84342   2
  -8  -1 -12 9.61351 8.42335   1
  -8  -1 -12 19.2164 7.57162   1
  -8   1 -12 24.7966 3.33204   3
  -8   1 -12 39.4382 10.4121   1
  -8   1 -12 26.4559 4.24128   2
  -8   1 -12 18.6498 8.97698   1
  -9  -1 -12 53.6957 5.38652   2
  -9  -1 -12 49.9508 11.4157   1
  -9  -1 -12 64.8171 11.5492   1
  -9   1 -12 63.4667 6.47053   2
  -9   1 -12 54.8272 4.68308   3
  -9   1 -12 65.4180 11.7275   1
  -9   1 -12 19.5206 15.6521   1
 -10  -1 -12 28.9116 10.1270   1
 -10  -1 -12 3.16966 7.44177   1
 -10  -1 -12 11.0249 6.08901   2
 -10   1 -12 21.0407 4.36130   2
 -10   1 -12 23.5643 9.27812   1
 -10   1 -12 13.6949 8.75147   1
 -10   1 -12 22.2683 3.08620   3
 -11  -1 -12 65.3834 11.8157   1
 -11  -1 -12 71.7142 13.5280   1
 -11  -1 -12 67.5990 7.17148   2
 -11   1 -12 75.7694 5.10552   3
 -11   1 -12 65.5112 12.9137   1
 -11   1 -12 66.5465 12.4682   1
 -12  -1 -12 2.52924 3.92236   2
 -12  -1 -12 5.00994 8.73606   1
 -12  -1 -12 -11.534 9.13006   1
 -12   1 -12 -2.0502 3.42517   2
 -12   1 -12 7.63213 3.75326   3
 -12   1 -12 9.18591 9.15608   1
 -12   1 -12 6.28756 8.62131   1
 -13  -1 -12 16.5560 9.23738   1
 -13  -1 -12 -4.6143 9.58133   1
 -13  -1 -12 17.2668 4.12264   2
 -13   1 -12 29.5459 18.7034   1
 -13   1 -12 2.37622 8.83882   1
 -13   1 -12 12.5827 3.52580   2
 -14  -1 -12 -20.292 10.6765   1
 -14  -1 -12 -1.6256 3.74323   2
 -14  -1 -12 2.89680 9.17117   1
 -14   1 -12 -2.6147 3.55288   2
 -14   1 -12 -4.8192 9.75009   1
 -14   1 -12 -12.019 8.15199   1
 -15  -1 -12 62.3745 13.6554   1
 -15  -1 -12 61.8134 18.4228   1
 -15  -1 -12 95.6257 8.16820   2
 -15   1 -12 87.9471 7.55265   2
 -15   1 -12 52.1639 14.4681   1
 -16  -1 -12 117.834 9.01129   2
 -16  -1 -12 116.045 17.8655   1
 -16  -1 -12 103.842 16.3151   1
 -16   1 -12 91.8464 15.8361   1
 -16   1 -12 126.553 20.0254   1
 -16   1 -12 129.240 8.71529   2
 -17  -1 -12 32.4858 5.01691   2
 -17  -1 -12 20.6956 12.7432   1
 -17   1 -12 38.2310 4.90781   2
 -17   1 -12 37.0339 26.7160   1
  20  -2 -12 1.82157 5.90585   3
  20   2 -12 16.0839 7.44675   3
  20   2 -12 -2.5928 11.8879   1
 -20   2  12 3.95409 9.60022   1
 -19  -2  12 -19.845 15.0637   1
  19  -2 -12 3.69882 5.66042   3
 -19   2  12 1.42989 8.13135   1
  19   2 -12 12.3635 6.47935   3
  19   2 -12 12.4735 9.94711   1
 -18  -2  12 -9.5167 13.1860   1
  18  -2 -12 3.69078 5.62125   3
  18  -2 -12 6.33614 7.58691   1
  18   2 -12 12.9555 9.85649   1
  18   2 -12 1.21584 2.40741   2
  18   2 -12 -4.4817 5.59436   3
 -18   2  12 2.36780 7.02811   1
 -17  -2  12 0.62401 10.6654   1
  17  -2 -12 2.96515 7.31922   1
  17  -2 -12 -3.1288 5.37629   3
  17   2 -12 -0.6866 10.4050   1
  17   2 -12 -0.4126 2.36873   2
  17   2 -12 3.38827 5.84239   3
 -17   2  12 -4.4544 6.65031   1
 -16  -2  12 6.06944 10.1113   1
  16  -2 -12 -1.6318 6.78653   1
  16  -2 -12 3.56991 6.33794   3
  16   2 -12 -5.4268 9.14821   1
  16   2 -12 5.12163 8.78787   3
  16   2 -12 0.53811 2.65408   2
  15  -2 -12 9.49016 6.25453   3
  15  -2 -12 2.37101 1.41481   2
  15  -2 -12 -3.3435 6.17196   1
  15  -2 -12 2.44957 1.31944   2
 -15  -2  12 0.46596 9.28949   1
  15   2 -12 5.33588 2.93108   2
  15   2 -12 -2.6868 5.95446   3
  15   2 -12 0.34861 9.84769   1
 -14  -2  12 9.81324 9.69062   1
  14  -2 -12 20.8045 6.57065   3
  14  -2 -12 15.3442 2.17604   2
  14  -2 -12 13.5223 7.00451   1
  14   2 -12 15.9339 5.80146   3
  14   2 -12 7.45442 12.9733   1
  14   2 -12 21.7226 3.72147   2
 -14   2  12 10.9361 5.48240   1
 -13  -2  12 -6.5986 9.09522   1
  13  -2 -12 3.89242 3.30897   2
  13  -2 -12 6.30089 6.10856   1
  13  -2 -12 1.87826 5.47185   3
 -13   2  12 6.58319 4.78425   1
  13   2 -12 -4.6875 6.65650   1
  13   2 -12 5.19881 4.88882   3
  13   2 -12 -1.4302 2.71935   2
  12  -2 -12 0.08408 2.24269   2
 -12  -2  12 4.32462 8.10277   1
  12  -2 -12 -4.2057 5.12875   1
  12  -2 -12 -4.7105 4.63717   3
  12   2 -12 -2.2332 7.71129   1
 -12   2  12 10.7567 4.92450   1
  12   2 -12 0.99432 2.79235   2
  12   2 -12 1.77034 4.70341   3
  11  -2 -12 3.12121 4.67845   3
  11  -2 -12 5.01109 5.63617   1
  11  -2 -12 4.16708 2.47623   2
 -11  -2  12 -3.7484 9.01733   1
 -11   2  12 -0.1309 4.35140   1
  11   2 -12 0.76576 3.07530   2
  11   2 -12 -2.4878 7.98027   1
  11   2 -12 4.86832 4.93687   3
  10  -2 -12 -6.9857 4.13165   3
 -10  -2  12 10.0014 9.28463   1
  10  -2 -12 3.90163 5.47687   1
 -10  -2  12 -1.0908 4.71464   2
  10  -2 -12 -2.7563 2.37208   2
  10   2 -12 8.39251 7.95699   1
  10   2 -12 2.19401 4.84118   3
  10   2 -12 -1.8179 2.95277   2
 -10   2  12 -0.0087 4.28499   1
  -9  -2  12 5.36330 4.90835   2
  -9  -2  12 18.8312 10.1518   1
   9  -2 -12 7.57743 6.04198   1
   9  -2 -12 10.6952 2.86947   2
   9  -2 -12 8.63768 4.82202   3
   9   2 -12 0.07951 4.35717   3
   9   2 -12 3.66791 3.08336   2
   9   2 -12 9.13652 7.91098   1
   8  -2 -12 6.97507 4.86012   3
  -8  -2  12 5.83322 8.08983   1
  -8  -2  12 2.46315 3.78990   2
   8  -2 -12 10.1909 2.97549   2
   8  -2 -12 -0.7488 5.88151   1
   8   2 -12 6.63259 3.04045   2
   8   2 -12 8.74012 7.26187   1
   8   2 -12 12.0746 4.25863   3
   7  -2 -12 62.8840 5.54455   2
  -7  -2  12 52.7651 11.5949   1
   7  -2 -12 70.2009 7.28936   3
  -7  -2  12 60.1381 7.00808   2
   7   2 -12 55.8520 6.08579   2
   7   2 -12 69.9452 7.49334   3
   7   2 -12 53.7560 10.6325   1
  -6  -2  12 -7.9380 6.82483   1
   6  -2 -12 5.10784 3.16259   2
  -6  -2  12 3.01429 5.17393   2
   6  -2 -12 1.16696 4.82590   3
   6   2 -12 4.05426 3.73191   3
   6   2 -12 8.93713 7.98200   1
   6   2 -12 4.75528 3.52448   2
   5  -2 -12 -0.9766 2.73955   2
  -5  -2  12 -1.8283 7.74470   1
   5  -2 -12 -1.2575 4.87916   1
   5  -2 -12 -0.8255 4.23537   3
   5   2 -12 -2.6189 6.50206   1
   5   2 -12 1.61609 2.79316   2
   5   2 -12 0.10486 3.39680   3
  -4  -2  12 17.5022 8.40602   1
   4  -2 -12 5.38727 3.05780   2
   4  -2 -12 1.82616 4.29637   3
   4  -2 -12 5.04383 5.44886   1
   4   2 -12 4.33616 4.25189   3
   4   2 -12 0.36013 6.33997   1
   4   2 -12 8.83814 3.59470   2
   3  -2 -12 80.4901 7.72155   3
   3  -2 -12 58.7621 8.99846   1
   3  -2 -12 83.7967 6.20439   2
  -3  -2  12 76.3646 12.2093   1
   3   2 -12 69.3272 12.0130   1
   3   2 -12 68.7663 6.10229   3
   3   2 -12 66.9316 6.41603   2
   2  -2 -12 181.509 14.7946   1
  -2  -2  12 170.226 17.7413   1
   2  -2 -12 158.675 9.05656   2
   2   2 -12 172.772 9.34477   2
   2   2 -12 179.446 17.2780   1
  -1  -2  12 213.240 18.6959   1
   1  -2 -12 213.641 10.1579   2
   1  -2 -12 199.601 15.4187   1
   1   2 -12 182.360 9.36000   3
   1   2 -12 191.357 10.1875   2
   1   2 -12 205.359 17.2908   1
   0  -2 -12 9.39679 6.47907   1
   0  -2  12 27.4240 9.16795   1
   0  -2 -12 23.2386 4.31907   2
   0  -2 -12 21.9529 7.15860   1
   0   2 -12 32.7526 8.86642   1
   0   2 -12 16.1690 3.62600   2
   0   2 -12 22.8782 3.37628   3
   1  -2  12 101.211 13.4718   1
  -1  -2 -12 101.866 11.7146   1
  -1  -2 -12 86.0729 7.06747   2
  -1  -2 -12 99.3080 12.3647   1
  -1   2 -12 88.0812 13.0781   1
  -1   2 -12 84.7813 5.72790   3
  -1   2 -12 108.379 7.35020   2
  -2  -2 -12 10.8392 6.38834   1
  -2  -2 -12 -1.2134 6.03011   1
  -2  -2 -12 -2.3921 3.23516   2
   2  -2  12 9.28368 7.87067   1
  -2   2 -12 3.14586 3.56783   2
  -2   2 -12 4.16276 7.00586   1
  -2   2 -12 2.76087 2.43365   3
  -3  -2 -12 4.57335 6.32047   1
  -3  -2 -12 5.04619 6.00019   1
  -3  -2 -12 2.96833 3.61122   2
  -3   2 -12 5.07059 6.86517   1
  -3   2 -12 1.77807 3.10089   2
  -3   2 -12 2.06769 2.30929   3
  -4  -2 -12 -3.2944 6.05281   1
  -4  -2 -12 -0.6385 5.76517   1
  -4  -2 -12 10.4177 4.06254   2
  -4   2 -12 1.68683 2.15245   3
  -4   2 -12 -5.5812 6.11744   1
  -4   2 -12 2.13824 11.4165   1
  -4   2 -12 2.62814 3.57599   2
  -4   2 -12 0.86974 2.14459   3
  -5  -2 -12 9.33884 6.67681   1
  -5  -2 -12 12.1582 4.14750   2
  -5  -2 -12 23.0794 7.69433   1
  -5   2 -12 4.81859 8.23900   1
  -5   2 -12 21.1513 9.21426   1
  -5   2 -12 21.1058 2.56266   3
  -5   2 -12 20.1656 2.65690   3
  -5   2 -12 13.8237 3.71531   2
  -6  -2 -12 45.7005 5.20266   2
  -6  -2 -12 49.5407 10.1405   1
  -6  -2 -12 46.2537 9.21700   1
  -6   2 -12 37.0512 3.51967   3
  -6   2 -12 37.1578 4.58736   2
  -6   2 -12 54.9762 11.3463   1
  -6   2 -12 45.3559 3.56195   3
  -6   2 -12 53.5753 10.9195   1
  -7  -2 -12 13.7861 8.62946   1
  -7  -2 -12 17.2212 4.11774   2
  -7  -2 -12 15.1370 7.48575   1
  -7   2 -12 27.9086 2.60935   3
  -7   2 -12 25.2323 4.18694   2
  -7   2 -12 31.4998 9.98555   1
  -7   2 -12 18.8376 9.59980   1
  -8  -2 -12 -5.7631 6.11228   1
  -8  -2 -12 6.75314 5.40121   2
  -8  -2 -12 -6.3887 7.55813   1
  -8   2 -12 2.54840 3.40601   2
  -8   2 -12 -5.2773 6.99338   1
  -8   2 -12 6.91754 7.40882   1
  -8   2 -12 0.88060 1.63799   3
  -8   2 -12 2.37312 2.05870   3
  -9  -2 -12 -7.0281 5.84760   1
  -9  -2 -12 2.55526 7.94693   1
  -9  -2 -12 7.18778 3.87843   2
  -9   2 -12 5.08563 6.40174   2
  -9   2 -12 0.26247 1.39229   3
  -9   2 -12 -0.8501 1.37816   3
  -9   2 -12 -1.0759 7.85871   1
  -9   2 -12 -2.8204 7.48318   1
 -10  -2 -12 5.70887 8.14708   1
 -10  -2 -12 3.41473 7.91091   1
 -10  -2 -12 4.11359 4.24245   2
 -10   2 -12 8.69055 7.63708   1
 -10   2 -12 2.76699 3.70600   2
 -10   2 -12 1.94002 7.96688   1
 -10   2 -12 4.47421 1.15485   3
 -11  -2 -12 47.5836 17.5344   1
 -11  -2 -12 13.1825 7.97050   1
 -11  -2 -12 25.4238 4.69250   2
 -11   2 -12 20.5091 9.51251   1
 -11   2 -12 29.0216 11.2342   1
 -11   2 -12 39.2028 5.02881   2
 -12  -2 -12 2.37198 4.31228   2
 -12  -2 -12 -1.2709 8.60124   1
 -12  -2 -12 4.73311 8.08525   1
 -12   2 -12 11.8955 10.0915   1
 -12   2 -12 2.75766 3.42102   2
 -12   2 -12 1.54652 9.90153   1
 -13  -2 -12 -6.1781 11.7096   1
 -13  -2 -12 4.31364 9.39737   1
 -13  -2 -12 3.74441 4.54555   2
 -13   2 -12 -5.8098 10.6248   1
 -13   2 -12 -3.7764 8.43438   1
 -13   2 -12 2.13624 3.52286   2
 -14  -2 -12 -3.4608 4.36628   2
 -14  -2 -12 4.16434 10.3028   1
 -14   2 -12 -0.1433 3.31520   2
 -14   2 -12 8.26923 17.2432   1
 -14   2 -12 9.58484 11.6890   1
 -15  -2 -12 33.9095 5.47835   2
 -15  -2 -12 40.0094 12.6957   1
 -15   2 -12 46.0096 5.39545   2
 -15   2 -12 34.6723 17.2166   1
 -16  -2 -12 8.69781 4.60170   2
 -16   2 -12 19.2404 4.40258   2
  19  -3 -12 5.07146 5.71948   3
  19   3 -12 0.54962 5.74404   3
  18  -3 -12 3.70799 5.90262   3
 -18  -3  12 10.1264 16.4478   1
  18   3 -12 -12.596 11.4267   1
  18   3 -12 2.53513 5.71109   3
  18   3 -12 2.24982 2.88865   2
 -17  -3  12 -22.154 13.9004   1
  17  -3 -12 2.94491 6.42347   3
  17  -3 -12 -4.9330 6.59590   1
  17   3 -12 5.18920 12.0216   1
  17   3 -12 1.32915 5.45653   3
  17   3 -12 1.13982 2.94310   2
  16  -3 -12 -5.8816 6.00360   1
  16  -3 -12 3.98011 6.42071   3
 -16  -3  12 4.34876 13.7854   1
  16   3 -12 -0.0492 5.31970   3
  16   3 -12 -9.4929 8.46270   1
  16   3 -12 2.46223 3.40060   2
 -15  -3  12 1.58573 12.6717   1
  15  -3 -12 2.93835 6.68576   3
  15  -3 -12 4.84546 1.21234   2
  15  -3 -12 1.46410 6.02962   1
  15  -3 -12 6.61753 1.48250   2
  15   3 -12 2.61774 6.18458   2
  15   3 -12 -0.5623 7.90355   3
  15   3 -12 5.50361 10.0193   1
  14  -3 -12 16.4326 6.67078   3
 -14  -3  12 20.0548 12.8317   1
  14  -3 -12 12.4501 6.42510   1
  14   3 -12 18.7912 6.21934   3
  14   3 -12 9.21041 6.27901   2
  14   3 -12 1.78229 8.52250   1
 -13  -3  12 8.09233 11.0554   1
  13  -3 -12 17.2166 2.91310   2
  13  -3 -12 17.7201 5.96687   3
  13  -3 -12 15.0390 2.33144   2
  13  -3 -12 6.59105 6.25435   1
  13   3 -12 16.5479 4.27833   2
  13   3 -12 4.74697 8.80112   1
  13   3 -12 22.0499 6.43011   3
  12  -3 -12 17.0894 6.45730   1
 -12  -3  12 7.73907 11.2908   1
  12  -3 -12 15.0492 2.79903   2
  12  -3 -12 20.9685 6.03554   3
  12  -3 -12 12.8356 2.49067   2
  12   3 -12 11.4021 9.92285   1
  12   3 -12 24.2664 4.70772   2
  12   3 -12 21.0523 5.79161   3
  11  -3 -12 7.50046 2.41559   2
  11  -3 -12 12.4818 6.30261   1
  11  -3 -12 13.7071 2.94478   2
 -11  -3  12 9.44174 9.68175   1
  11  -3 -12 19.6951 6.24799   3
  11   3 -12 17.3273 5.03043   3
  11   3 -12 14.6869 9.94649   1
  11   3 -12 16.3062 4.28590   2
  10  -3 -12 6.90688 5.30097   1
  10  -3 -12 8.99535 2.94916   2
  10  -3 -12 8.60716 5.50491   3
 -10  -3  12 13.1303 12.3101   1
  10   3 -12 12.5715 4.76981   3
  10   3 -12 8.81820 4.09526   2
  10   3 -12 7.51051 8.36880   1
   9  -3 -12 3.27386 4.84830   3
   9  -3 -12 1.58610 2.90711   2
   9  -3 -12 12.0390 5.59100   1
  -9  -3  12 -0.4165 18.3077   1
   9   3 -12 10.7899 8.14040   1
   9   3 -12 5.69738 3.72660   2
   9   3 -12 12.3337 5.07171   3
   8  -3 -12 -2.0807 4.51089   3
   8  -3 -12 0.87295 2.81750   2
   8  -3 -12 0.62265 4.87757   1
   8   3 -12 0.47889 3.95355   3
   8   3 -12 -12.804 6.99563   1
   8   3 -12 -1.6890 3.18713   2
   7  -3 -12 -3.2978 4.59642   1
  -7  -3  12 -11.883 11.0008   1
   7  -3 -12 4.62348 3.21198   2
   7  -3 -12 0.59673 4.84482   3
   7   3 -12 4.27667 4.04517   3
   7   3 -12 11.9539 8.34469   1
   7   3 -12 3.64548 3.99586   2
   6  -3 -12 5.29318 4.98745   1
   6  -3 -12 -0.8736 2.88932   2
  -6  -3  12 -6.8634 10.9364   1
   6  -3 -12 1.21624 4.81685   3
   6   3 -12 3.30077 3.60621   3
   6   3 -12 8.75596 7.14927   1
   6   3 -12 -0.7017 3.23743   2
  -5  -3  12 57.8505 17.3946   1
   5  -3 -12 62.7864 6.27224   2
   5  -3 -12 47.2609 7.73505   1
   5  -3 -12 53.0351 6.75187   3
   5   3 -12 61.7989 6.47005   3
   5   3 -12 69.2508 6.32293   2
   5   3 -12 48.5827 10.6238   1
   4  -3 -12 26.9837 6.52676   1
   4  -3 -12 36.2770 4.54473   2
   4   3 -12 35.6145 4.86853   2
   4   3 -12 28.4683 4.60040   3
   4   3 -12 36.5268 9.53685   1
   3  -3 -12 -0.8172 4.82426   1
   3  -3 -12 1.39621 3.21116   2
   3  -3 -12 13.0125 5.43725   1
  -3  -3  12 1.41076 12.8855   1
   3   3 -12 -0.2283 3.04643   3
   3   3 -12 -2.7129 3.22004   2
   3   3 -12 1.29000 7.90655   1
   2  -3 -12 15.5260 5.95558   1
   2  -3 -12 10.5705 5.53748   1
   2  -3 -12 16.3297 3.65023   2
  -2  -3  12 20.6333 11.1224   1
   2   3 -12 11.7794 3.65957   2
   2   3 -12 11.9471 3.33988   3
   2   3 -12 11.8868 8.68691   1
  -1  -3  12 51.7335 11.2346   1
   1  -3 -12 53.8737 5.47929   2
   1  -3 -12 42.7311 7.95526   1
   1  -3 -12 41.4447 7.73687   1
   1   3 -12 41.1661 4.99869   2
   1   3 -12 28.9597 8.66257   1
   1   3 -12 46.0209 4.87312   3
   0  -3  12 -11.019 7.06066   1
   0  -3 -12 -0.2848 3.33637   2
   0  -3 -12 4.24825 5.36477   1
   0  -3 -12 -0.0726 5.23111   1
   0   3 -12 -0.1019 2.36557   3
   0   3 -12 4.31184 3.56106   2
   0   3 -12 10.5105 7.28582   1
  -1  -3 -12 2.94421 3.43259   2
  -1  -3 -12 0.31983 5.02971   1
   1  -3  12 4.71590 7.91395   1
  -1  -3 -12 -4.0928 5.01889   1
  -1   3 -12 5.30121 3.92976   2
  -1   3 -12 5.30856 7.74463   1
  -1   3 -12 5.78989 2.36029   3
   2  -3  12 12.8257 9.25834   1
  -2  -3 -12 11.9522 4.12879   2
  -2  -3 -12 6.54499 5.47230   1
  -2  -3 -12 6.25915 6.25619   1
  -2   3 -12 1.49000 3.19238   2
  -2   3 -12 -4.5522 6.61754   1
  -2   3 -12 8.03527 2.09326   3
  -3  -3 -12 7.71904 6.31529   1
   3  -3  12 23.2519 9.51172   1
  -3  -3 -12 2.50332 4.12819   2
  -3  -3 -12 2.94594 7.56321   1
  -3   3 -12 7.38497 1.86019   3
  -3   3 -12 10.3055 7.68909   1
  -3   3 -12 6.84521 4.18554   2
  -3   3 -12 8.78148 7.53718   1
  -3   3 -12 4.91970 1.70566   3
  -4  -3 -12 49.2006 8.13283   2
  -4  -3 -12 62.2021 11.5432   1
  -4  -3 -12 60.8330 10.1046   1
  -4   3 -12 44.6509 10.7907   1
  -4   3 -12 74.4767 12.4204   1
  -5  -3 -12 7.02817 4.08708   2
  -5  -3 -12 -4.1575 5.59785   1
  -5   3 -12 -1.8924 4.19227   2
  -5   3 -12 -12.392 5.77367   1
  -5   3 -12 5.56719 7.64087   1
  -6  -3 -12 -0.3825 3.80094   2
  -6  -3 -12 8.88961 7.31944   1
  -6  -3 -12 -10.139 5.80288   1
  -6   3 -12 -0.2632 3.92000   2
  -6   3 -12 -1.1089 7.53926   1
  -6   3 -12 10.5217 7.77372   1
  -7  -3 -12 53.6077 10.7410   1
  -7  -3 -12 68.6798 6.70221   2
  -7  -3 -12 49.0267 9.74945   1
  -7   3 -12 55.7990 5.84613   2
  -7   3 -12 64.7071 12.7966   1
  -7   3 -12 49.3012 11.2466   1
  -8  -3 -12 74.4220 12.1725   1
  -8  -3 -12 81.1748 8.33651   2
  -8  -3 -12 107.980 14.5021   1
  -8   3 -12 68.5207 12.2597   1
  -8   3 -12 127.044 18.7116   1
  -8   3 -12 88.2211 7.70592   2
  -9  -3 -12 3.02328 4.30318   2
  -9  -3 -12 10.8493 7.43698   1
  -9   3 -12 5.75150 8.45770   1
  -9   3 -12 3.50771 8.37980   1
  -9   3 -12 7.66181 3.95049   2
 -10  -3 -12 4.58004 4.24238   2
 -10  -3 -12 -2.0118 7.70786   1
 -10   3 -12 -0.3325 8.56047   1
 -10   3 -12 -0.9847 9.63063   1
 -10   3 -12 0.08321 3.96127   2
 -11  -3 -12 52.2691 10.8815   1
 -11  -3 -12 77.2240 7.33527   2
 -11   3 -12 64.2948 14.4922   1
 -11   3 -12 52.6776 5.56871   2
 -12  -3 -12 32.9993 10.9525   1
 -12  -3 -12 32.2105 5.43160   2
 -12   3 -12 19.1668 4.29578   2
 -12   3 -12 65.6706 14.2419   1
 -13  -3 -12 19.6113 4.85106   2
 -13   3 -12 11.2971 15.8768   1
 -13   3 -12 35.1567 5.13348   2
 -14  -3 -12 -3.1513 4.55536   2
 -14   3 -12 1.81581 3.70689   2
 -16  -4  12 50.3655 21.1509   1
  16  -4 -12 13.3813 6.09285   3
  16   4 -12 8.56585 5.08491   3
  16   4 -12 -1.1518 3.22395   2
 -15  -4  12 -20.823 15.8511   1
  15  -4 -12 0.51922 5.22363   3
  15   4 -12 0.47864 5.39678   3
  15   4 -12 -0.6901 3.85710   2
  14  -4 -12 26.1493 6.42369   3
 -14  -4  12 -11.464 21.7160   1
  14  -4 -12 27.8746 3.13702   2
  14  -4 -12 7.18352 5.29971   1
  14   4 -12 29.9443 5.86480   3
  14   4 -12 17.4331 4.50715   2
  13  -4 -12 -1.6706 2.44073   2
  13  -4 -12 7.03875 4.84296   1
  13  -4 -12 7.25960 6.13994   3
 -13  -4  12 19.4727 20.5233   1
  13   4 -12 8.69281 4.42067   2
  13   4 -12 1.79644 6.05983   3
 -12  -4  12 50.6406 14.2600   1
  12  -4 -12 48.0710 7.65330   3
  12  -4 -12 59.3753 5.31248   2
  12  -4 -12 42.4507 6.63812   1
  12   4 -12 53.6256 15.0436   1
  12   4 -12 36.6375 5.65924   3
  12   4 -12 48.6107 6.16517   2
  11  -4 -12 27.2201 10.7404   3
 -11  -4  12 13.6289 12.4565   1
  11  -4 -12 15.6554 5.19562   1
  11  -4 -12 14.8214 2.94687   2
  11  -4 -12 13.3449 3.39753   2
  11   4 -12 17.3344 4.24641   2
  11   4 -12 21.0410 5.59991   3
  11   4 -12 7.81669 10.0374   1
  10  -4 -12 5.19222 4.26823   1
 -10  -4  12 12.6265 12.3754   1
  10  -4 -12 -3.3846 2.87844   2
  10  -4 -12 3.98492 8.06791   3
  10   4 -12 1.35839 7.83700   1
  10   4 -12 0.15840 4.53123   3
  10   4 -12 -1.6697 3.83196   2
   9  -4 -12 9.50277 5.61168   3
  -9  -4  12 12.7264 11.3002   1
   9  -4 -12 11.4860 4.72941   1
   9  -4 -12 13.5055 3.63174   2
   9   4 -12 12.1536 4.34765   3
   9   4 -12 16.3066 4.75866   2
   9   4 -12 5.52174 10.9578   1
   8  -4 -12 9.65535 5.69547   1
  -8  -4  12 2.07285 10.3962   1
   8  -4 -12 8.36992 3.47984   2
   8  -4 -12 8.73901 4.53111   1
   8  -4 -12 3.43522 5.54582   3
   8   4 -12 -1.1833 13.6883   1
   8   4 -12 5.58262 3.79527   3
   8   4 -12 2.82798 4.00405   2
   7  -4 -12 5.34352 4.24905   1
  -7  -4  12 -5.0453 9.20917   1
   7  -4 -12 5.16211 3.51219   2
   7  -4 -12 4.90078 3.90601   1
   7  -4 -12 1.25770 5.52736   3
   7   4 -12 -0.4103 3.38305   3
   7   4 -12 -0.0632 3.71300   2
   6  -4 -12 7.71997 4.20527   1
   6  -4 -12 3.23092 3.81897   2
   6  -4 -12 -1.2927 5.49162   3
  -6  -4  12 13.1600 10.8638   1
   6  -4 -12 8.76086 4.36323   1
   6   4 -12 2.36679 4.44308   2
   6   4 -12 8.63520 9.89721   1
   6   4 -12 3.94624 3.46508   3
   5  -4 -12 -3.8050 3.67042   2
   5  -4 -12 -1.0622 3.87536   1
   5  -4 -12 4.84499 5.31969   3
  -5  -4  12 3.44224 9.55655   1
   5  -4 -12 0.03604 4.08510   1
   5   4 -12 2.50118 4.19520   2
   5   4 -12 -1.5131 2.90700   3
   5   4 -12 -3.8348 7.00341   1
  -4  -4  12 3.31078 8.62620   1
   4  -4 -12 15.1870 4.40427   2
   4  -4 -12 11.7503 4.86105   1
   4  -4 -12 3.13473 4.85822   1
   4   4 -12 11.9021 9.17825   1
   4   4 -12 14.5648 4.46325   2
   4   4 -12 17.6694 3.36673   3
   3  -4 -12 31.2483 7.51446   2
   3  -4 -12 29.9640 8.45237   1
  -3  -4  12 35.9337 10.9090   1
   3  -4 -12 35.7182 6.22433   1
   3   4 -12 16.9431 8.48508   1
   3   4 -12 30.9171 3.71538   3
   3   4 -12 28.7879 5.16960   2
   2  -4 -12 17.6048 6.15659   2
  -2  -4  12 -3.9001 8.98460   1
   2  -4 -12 24.0488 5.92196   1
   2   4 -12 17.1028 4.83900   2
   2   4 -12 14.1576 2.81763   3
   2   4 -12 9.86917 9.46895   1
  -1  -4  12 -5.1574 9.16005   1
   1  -4 -12 6.06779 4.94796   1
   1  -4 -12 -0.2453 3.64304   2
   1  -4 -12 -10.117 4.49379   1
   1   4 -12 4.60771 4.26795   2
   1   4 -12 -0.8921 2.07558   3
   1   4 -12 -4.0292 7.98207   1
   0  -4 -12 -0.4111 4.20878   2
   0  -4 -12 -0.6888 4.83016   1
   0  -4  12 -9.8645 7.13581   1
   0  -4 -12 0.07249 5.05003   1
   0   4 -12 -2.8001 3.77314   2
   0   4 -12 -0.3091 1.73662   3
  -1  -4 -12 32.0266 7.34342   1
  -1  -4 -12 16.3733 7.75792   1
  -1  -4 -12 27.1356 5.42926   2
   1  -4  12 25.0030 10.8806   1
  -1   4 -12 31.5998 2.59728   3
  -1   4 -12 29.8582 5.11278   2
  -1   4 -12 14.4793 16.1615   1
  -2  -4 -12 16.2964 6.95856   1
   2  -4  12 -2.5478 8.74291   1
  -2  -4 -12 16.9450 4.85127   2
  -2   4 -12 3.15381 6.92729   1
  -2   4 -12 9.40336 7.73802   1
  -2   4 -12 20.9480 5.18587   2
   3  -4  12 -3.4439 9.16828   1
  -3  -4 -12 3.91607 4.52321   2
  -3  -4 -12 -7.8637 5.98350   1
  -3   4 -12 -8.9665 8.11257   1
  -3   4 -12 1.98588 4.08952   2
  -3   4 -12 -7.2982 7.66341   1
  -4  -4 -12 2.61053 4.94214   2
  -4  -4 -12 6.21572 6.72449   1
  -4   4 -12 2.76543 8.89177   1
  -4   4 -12 3.39895 4.27450   2
  -4   4 -12 -9.9293 8.00423   1
  -5  -4 -12 25.1210 8.15244   1
  -5  -4 -12 13.2523 5.22715   2
  -5   4 -12 17.0029 11.7812   1
  -5   4 -12 17.6107 8.72865   1
  -5   4 -12 21.4934 5.42646   2
  -6  -4 -12 5.07056 7.18981   1
  -6  -4 -12 0.91863 4.37487   2
  -6   4 -12 1.09911 9.24817   1
  -6   4 -12 4.06173 4.48957   2
  -7  -4 -12 -4.0638 6.97704   1
  -7  -4 -12 0.28709 4.67974   2
  -7   4 -12 2.46796 9.56811   1
  -7   4 -12 1.04206 4.29492   2
  -8  -4 -12 -2.3766 8.10098   1
  -8  -4 -12 5.55766 5.06907   2
  -8   4 -12 9.55908 10.4898   1
  -8   4 -12 5.10469 4.38724   2
  -9  -4 -12 -7.1724 4.32664   2
  -9  -4 -12 -3.3769 8.91330   1
  -9   4 -12 4.12976 10.6908   1
  -9   4 -12 -3.5902 4.08941   2
 -10  -4 -12 26.8722 5.78712   2
 -10   4 -12 29.3295 5.54338   2
 -11   4 -12 14.7736 4.36780   2
 -12  -4 -12 3.38494 4.73404   2
 -12   4 -12 -0.6339 4.06372   2
  11  -5 -12 7.43825 5.38677   3
  11   5 -12 2.59652 8.92611   2
  11   5 -12 -0.5133 3.99344   3
  10  -5 -12 6.05424 3.67956   2
  10  -5 -12 10.6949 5.57664   3
  10   5 -12 4.49320 4.46896   3
  10   5 -12 19.8062 6.14150   2
   9  -5 -12 58.6350 6.75933   2
   9  -5 -12 42.3982 7.47548   3
   9   5 -12 63.3121 7.22955   3
   9   5 -12 29.1112 5.44289   2
   8  -5 -12 51.0540 5.47978   2
   8  -5 -12 67.8662 8.18697   3
   8   5 -12 30.9270 5.39754   2
   8   5 -12 42.9380 5.33689   3
   7  -5 -12 37.1447 7.31564   3
   7  -5 -12 29.1829 4.77288   2
   7   5 -12 30.1329 4.59459   3
   7   5 -12 29.9072 5.75091   2
   6  -5 -12 43.0927 5.36116   2
   6  -5 -12 36.1641 7.37794   3
   6   5 -12 44.7009 6.71988   2
   6   5 -12 37.8541 4.75198   3
   5  -5 -12 0.97179 3.90032   2
   5  -5 -12 -8.0893 5.37784   3
   5   5 -12 2.46827 3.05440   3
   5   5 -12 -0.6762 4.73309   2
   4  -5 -12 -0.0438 4.02176   2
   4   5 -12 2.60764 4.80375   2
   4   5 -12 -0.1313 2.69667   3
   3  -5 -12 9.91706 4.75506   2
   3   5 -12 4.61683 4.43734   2
   2  -5 -12 15.2450 6.24984   1
   2  -5 -12 8.92690 4.49909   2
   2   5 -12 7.37808 4.37637   2
   2   5 -12 12.0948 2.40590   3
   1  -5 -12 73.5432 8.57600   2
   1   5 -12 60.6560 6.91760   2
   0  -5 -12 1.85437 4.81628   1
   0  -5 -12 4.61881 5.06524   2
   0   5 -12 -7.8098 9.13851   1
   0   5 -12 5.10541 4.77620   2
  -1  -5 -12 21.4073 5.96804   1
  -1  -5 -12 21.1082 5.76583   2
  -1   5 -12 8.67626 10.7787   1
  -1   5 -12 20.0302 5.17446   2
  -2  -5 -12 42.6212 6.43824   2
  -2  -5 -12 29.3722 7.08998   1
  -2   5 -12 36.8320 6.12103   2
  -2   5 -12 56.6403 13.9441   1
  -3  -5 -12 26.3470 6.14787   2
  -3  -5 -12 12.6044 6.99899   1
  -3   5 -12 36.4372 14.9321   1
  -3   5 -12 27.1241 5.95279   2
  -4  -5 -12 12.2519 5.67716   2
  -4  -5 -12 -11.098 6.84677   1
  -4   5 -12 -3.7099 4.25561   2
  -5  -5 -12 45.4693 9.85313   1
  -5  -5 -12 60.5226 8.11362   2
  -5   5 -12 48.2104 6.43733   2
  -6  -5 -12 2.27720 7.95647   2
  -6   5 -12 30.6964 6.48005   2
  -7  -5 -12 15.4095 6.21241   2
  -7   5 -12 20.3603 8.66309   2
  21   0 -13 5.23719 6.74832   3
  20   0 -13 3.29650 7.00321   3
  19   0 -13 -2.2589 9.48734   1
 -19   0  13 -2.6105 11.7602   1
  19   0 -13 -1.3634 6.25219   3
 -18   0  13 8.42268 10.9232   1
  18   0 -13 28.6962 10.0901   1
  18   0 -13 2.21759 6.24158   3
  17   0 -13 -7.6003 7.92730   1
 -17   0  13 11.2727 9.71039   1
  17   0 -13 -11.079 5.62212   3
  16   0 -13 -7.0996 5.89052   3
  16   0 -13 2.20710 2.65713   2
  16   0 -13 11.5917 7.90659   1
 -16   0  13 4.56720 8.02542   1
 -16   0  13 -0.0217 1.95562   2
  15   0 -13 -0.1544 5.19662   3
  15   0 -13 -7.2907 6.98787   1
 -15   0  13 -11.689 6.52392   1
  15   0 -13 1.76312 2.04178   2
 -15   0  13 0.56154 2.05210   2
  14   0 -13 11.1728 8.83988   1
  14   0 -13 -0.9017 5.58220   3
 -14   0  13 -0.7483 2.19727   2
  14   0 -13 0.81207 2.20925   2
  13   0 -13 2.53929 5.83266   1
 -13   0  13 -11.104 7.68972   1
  13   0 -13 -0.9345 2.34062   2
 -13   0  13 0.91820 2.35690   2
  13   0 -13 -2.9579 4.70967   3
  12   0 -13 -0.8889 4.74345   3
 -12   0  13 -2.1785 2.32979   2
  12   0 -13 2.07244 2.59153   2
  12   0 -13 -4.5489 7.46343   1
  11   0 -13 7.20226 5.31155   3
 -11   0  13 1.76158 2.55118   2
  11   0 -13 -0.3454 2.68953   2
  10   0 -13 0.95288 5.19846   3
 -10   0  13 5.72434 2.65444   2
  10   0 -13 -0.5259 2.71012   2
   9   0 -13 -0.5839 2.60407   2
   9   0 -13 -0.8669 7.85624   1
   9   0 -13 -7.3280 4.20225   3
  -9   0  13 2.96715 2.85805   2
   8   0 -13 8.60548 4.55860   3
   8   0 -13 1.19414 2.86054   2
  -8   0  13 3.59421 2.93191   2
   8   0 -13 2.86461 8.01915   1
  -7   0  13 -2.5622 8.18492   1
   7   0 -13 7.94765 8.41857   1
   7   0 -13 -5.0660 3.95371   3
   7   0 -13 -2.1866 2.89466   2
   6   0 -13 -1.4199 2.82517   2
  -6   0  13 0.90730 2.71415   2
  -6   0  13 3.48641 6.60162   1
   6   0 -13 2.02544 7.82033   1
   6   0 -13 -0.5263 4.07256   3
  -5   0  13 2.80550 6.56804   1
  -5   0  13 0.49632 2.48562   2
   5   0 -13 -2.5602 4.13190   3
   5   0 -13 -2.2646 2.68662   2
   4   0 -13 -2.0148 3.16717   2
  -4   0  13 0.89466 2.62387   2
   4   0 -13 2.52132 4.50278   3
   4   0 -13 1.97165 11.0723   1
  -4   0  13 -0.1328 6.84862   1
  -3   0  13 10.8973 3.47349   2
   3   0 -13 0.25977 6.55951   1
  -3   0  13 10.5635 8.05562   1
   3   0 -13 3.83109 3.51615   2
   3   0 -13 5.68156 4.25066   3
   2   0 -13 4.34837 7.80279   1
   2   0 -13 3.26345 3.83889   3
  -2   0  13 0.64910 6.43841   1
   2   0 -13 4.15014 3.36580   2
  -2   0  13 4.41367 2.87344   2
  -1   0  13 -3.4772 2.96479   2
   1   0 -13 -3.2075 9.54339   1
   1   0 -13 -0.9081 3.50111   3
   1   0 -13 -1.9491 3.05553   2
   0   0 -13 4.18879 3.53843   2
   0   0 -13 0.37257 3.42793   3
   0   0 -13 6.67933 6.24822   1
  -1   0 -13 9.06645 7.25222   1
  -1   0 -13 -1.4084 3.07517   2
  -1   0 -13 7.27539 3.82310   3
  -2   0 -13 -1.5562 5.77812   1
  -2   0 -13 1.60038 3.06653   2
  -2   0 -13 -4.0485 3.58304   3
  -3   0 -13 0.38924 6.14270   1
  -3   0 -13 0.26235 3.19209   3
  -3   0 -13 3.82563 6.29060   1
  -3   0 -13 -0.6029 3.19855   2
  -4   0 -13 -7.4623 6.21256   1
  -4   0 -13 1.79895 3.68973   2
  -4   0 -13 0.97900 7.07832   1
  -5   0 -13 1.92012 7.36413   1
  -5   0 -13 -1.4067 7.22904   1
  -5   0 -13 1.84133 3.55163   2
  -6   0 -13 -1.2806 3.34260   2
  -6   0 -13 4.12508 8.08269   1
  -6   0 -13 1.14161 7.16530   1
  -7   0 -13 -9.0757 6.60473   1
  -7   0 -13 0.33104 7.19086   1
  -7   0 -13 2.95155 3.55807   2
  -8   0 -13 1.25121 4.73343   2
  -8   0 -13 -11.882 6.91661   1
  -8   0 -13 3.59886 7.21595   1
  -9   0 -13 2.78909 7.96064   1
  -9   0 -13 -5.1775 4.31657   2
  -9   0 -13 7.22530 8.48626   1
 -10   0 -13 2.71186 3.61165   2
 -10   0 -13 -5.5768 8.03299   1
 -10   0 -13 9.94183 9.44033   1
 -11   0 -13 -4.4639 8.02121   1
 -11   0 -13 -3.4338 3.47678   2
 -11   0 -13 -4.6461 9.17496   1
 -12   0 -13 -0.7626 3.50207   2
 -12   0 -13 -8.4488 8.79753   1
 -12   0 -13 5.43385 9.79973   1
 -13   0 -13 -7.6486 8.48273   1
 -13   0 -13 -0.8690 3.91352   2
 -14   0 -13 0.30927 12.4855   1
 -14   0 -13 4.91908 10.6771   1
 -14   0 -13 -0.6151 3.61592   2
 -15   0 -13 -1.2099 13.6119   1
 -15   0 -13 -1.0462 3.69845   2
 -15   0 -13 -11.894 10.7487   1
 -16   0 -13 -13.666 24.3083   1
 -16   0 -13 -0.2342 3.86887   2
  20  -1 -13 12.4443 6.38227   3
  20   1 -13 9.92533 6.73886   3
 -19  -1  13 10.4341 19.0509   1
  19  -1 -13 -9.8753 5.54547   3
  19  -1 -13 0.98738 15.8821   1
 -19   1  13 -11.480 11.0007   1
  19   1 -13 6.56110 6.98221   3
  19   1 -13 -12.833 10.1600   1
 -18  -1  13 20.4055 17.7362   1
  18  -1 -13 1.95238 6.57138   3
  18  -1 -13 16.6070 9.17940   1
  18   1 -13 4.34401 6.02299   3
  18   1 -13 0.03038 1.91470   2
 -18   1  13 -7.5423 9.44858   1
  18   1 -13 13.5341 9.69190   1
 -17  -1  13 8.85221 12.9787   1
  17  -1 -13 9.10424 6.89579   3
 -17  -1  13 9.91875 2.61485   2
  17  -1 -13 16.4669 8.28056   1
 -17   1  13 17.6920 9.63207   1
  17   1 -13 -2.9247 8.35838   1
  17   1 -13 10.3713 2.52329   2
  17   1 -13 8.63869 6.75786   3
 -16  -1  13 4.28700 2.55808   2
  16  -1 -13 7.19976 7.06146   1
  16  -1 -13 3.82611 1.53972   2
 -16  -1  13 -13.184 10.9718   1
 -16   1  13 0.03583 8.36103   1
  16   1 -13 25.3614 9.27217   1
  16   1 -13 6.41615 2.39830   2
  15  -1 -13 9.61346 6.94557   1
 -15  -1  13 4.43705 16.1703   1
 -15  -1  13 5.36088 5.13397   2
  15  -1 -13 5.62834 5.34617   3
  15   1 -13 0.52235 7.32821   1
  15   1 -13 -3.1244 5.84515   3
  15   1 -13 3.44134 2.41489   2
 -15   1  13 -11.713 6.81101   1
  14  -1 -13 16.7710 5.86703   3
  14  -1 -13 20.4281 3.50556   2
 -14  -1  13 4.47034 15.9198   1
  14  -1 -13 19.8366 7.94542   1
  14   1 -13 18.0506 5.86169   3
  14   1 -13 12.7418 2.90230   2
  14   1 -13 -1.8757 7.76697   1
 -14   1  13 25.5916 8.61693   1
 -13  -1  13 44.4093 16.9110   1
  13  -1 -13 17.5781 7.64254   1
  13  -1 -13 34.3654 6.52417   3
 -13  -1  13 30.6134 3.88577   2
  13  -1 -13 31.1770 3.31721   2
 -13   1  13 37.4858 8.93212   1
  13   1 -13 33.9561 6.57473   3
  13   1 -13 34.7653 3.97645   2
  13   1 -13 22.9287 10.0211   1
  12  -1 -13 6.75884 2.55426   2
  12  -1 -13 2.35123 6.01734   1
 -12  -1  13 33.1197 17.2696   1
 -12  -1  13 1.37358 2.70547   2
  12  -1 -13 6.13574 5.37042   3
  12   1 -13 6.27123 7.22558   1
  12   1 -13 3.52535 2.87128   2
  12   1 -13 7.62088 5.05638   3
 -12   1  13 -3.4966 5.92531   1
 -11  -1  13 21.3477 12.5109   1
  11  -1 -13 29.0340 3.42439   2
  11  -1 -13 33.5307 5.96668   3
  11  -1 -13 26.4209 8.09892   1
 -11  -1  13 22.0251 3.45038   2
  11   1 -13 13.3335 7.68633   1
  11   1 -13 18.8546 3.39983   2
  11   1 -13 21.4535 5.47934   3
 -11   1  13 31.7507 3.40545   2
 -11   1  13 42.5546 9.63123   1
 -10  -1  13 21.2190 3.46324   2
  10  -1 -13 29.0413 3.55497   2
 -10  -1  13 8.21979 11.1610   1
  10  -1 -13 22.3343 5.48433   3
  10  -1 -13 25.5491 8.07656   1
  10   1 -13 25.8054 5.17224   3
  10   1 -13 28.0210 3.87695   2
  10   1 -13 30.4839 9.89984   1
 -10   1  13 27.3713 3.28871   2
   9  -1 -13 -0.2493 4.61566   3
   9  -1 -13 8.48163 6.16168   1
  -9  -1  13 3.41202 3.04589   2
   9  -1 -13 0.06757 2.83989   2
  -9  -1  13 -0.7009 8.30887   1
  -9   1  13 14.6191 11.3020   1
  -9   1  13 0.90350 2.37943   2
   9   1 -13 -2.2575 6.30195   1
   9   1 -13 -4.2813 2.56473   2
   9   1 -13 1.79882 4.51527   3
   8  -1 -13 187.916 11.2600   3
  -8  -1  13 145.471 16.8820   1
   8  -1 -13 186.120 9.06471   2
  -8  -1  13 173.439 9.27343   2
   8   1 -13 177.717 9.48772   2
   8   1 -13 170.602 17.2125   1
  -8   1  13 181.712 16.5826   1
  -8   1  13 182.045 8.85358   2
   8   1 -13 182.347 10.7542   3
   7  -1 -13 -2.6274 4.60240   3
  -7  -1  13 -4.7986 2.99659   2
   7  -1 -13 -0.9683 2.68459   2
  -7  -1  13 5.27236 7.93829   1
   7  -1 -13 0.78849 5.83855   1
   7   1 -13 -0.1087 2.79036   2
   7   1 -13 -5.4605 6.21614   1
   7   1 -13 4.70578 4.73256   3
  -7   1  13 2.91423 2.70066   2
  -6  -1  13 13.6708 8.55712   1
   6  -1 -13 14.7129 7.09149   1
   6  -1 -13 26.6798 5.61697   3
  -6  -1  13 15.0285 3.57106   2
   6  -1 -13 24.9020 3.84598   2
   6   1 -13 24.6270 4.69152   3
  -6   1  13 4.56746 9.94959   1
   6   1 -13 21.9925 9.05258   1
   6   1 -13 16.9345 3.61142   2
   5  -1 -13 454.984 18.4513   2
   5  -1 -13 447.413 25.6236   1
   5  -1 -13 484.350 19.8599   3
  -5  -1  13 469.935 27.2765   1
  -5  -1  13 379.082 18.4542   2
   5   1 -13 457.375 18.6773   2
  -5   1  13 445.127 18.3686   2
   5   1 -13 485.218 19.3246   3
  -5   1  13 446.567 23.8902   1
   5   1 -13 452.812 26.8001   1
   4  -1 -13 130.040 7.85390   2
   4  -1 -13 149.260 9.49839   3
   4  -1 -13 111.852 13.5570   1
  -4  -1  13 106.785 14.4541   1
  -4  -1  13 93.4405 9.45552   2
   4   1 -13 114.064 14.2611   1
   4   1 -13 131.150 8.09369   2
  -4   1  13 104.532 7.37299   2
   4   1 -13 133.889 8.56398   3
   3  -1 -13 318.163 20.9488   1
  -3  -1  13 315.508 21.5306   1
   3  -1 -13 340.621 15.1828   3
   3  -1 -13 318.905 13.8185   2
   3   1 -13 297.519 14.0363   2
   3   1 -13 282.518 22.0389   1
   3   1 -13 327.945 14.3508   3
  -3   1  13 307.701 13.6828   2
   2  -1 -13 80.0652 8.17859   3
  -2  -1  13 84.2482 12.3307   1
   2  -1 -13 76.3609 6.71734   2
   2  -1 -13 94.3222 12.3078   1
  -2   1  13 57.4527 6.15338   2
   2   1 -13 88.6692 12.4438   1
   2   1 -13 91.8775 7.00314   3
   2   1 -13 86.8596 7.08711   2
   1  -1 -13 400.920 16.7541   2
   1  -1 -13 417.623 17.6609   3
   1  -1 -13 385.653 23.7388   1
  -1  -1  13 393.708 24.4913   1
   1   1 -13 402.195 24.9828   1
   1   1 -13 391.824 16.9118   2
   1   1 -13 378.379 16.6452   3
   0  -1  13 93.2571 13.3326   1
   0  -1 -13 119.753 12.5555   1
   0  -1 -13 108.351 7.56315   2
   0   1 -13 81.6385 12.2276   1
   0   1 -13 101.395 7.53142   2
  -1  -1 -13 25.0485 8.34519   1
  -1  -1 -13 34.1127 8.77961   1
  -1  -1 -13 26.4257 4.01387   2
  -1   1 -13 24.7190 3.86024   2
  -1   1 -13 28.3020 8.67075   1
  -1   1 -13 31.5193 4.88803   3
  -2  -1 -13 5.89066 3.76259   2
  -2  -1 -13 7.55905 7.38190   1
  -2  -1 -13 -2.9663 6.22370   1
  -2   1 -13 7.75207 3.77027   2
  -2   1 -13 15.8246 7.74801   1
  -2   1 -13 9.36957 3.16496   3
  -3  -1 -13 95.2485 12.6549   1
  -3  -1 -13 96.8170 7.47048   2
  -3  -1 -13 84.7050 12.2244   1
  -3   1 -13 95.0531 6.19259   3
  -3   1 -13 92.6974 6.41586   3
  -3   1 -13 93.8262 7.25012   2
  -3   1 -13 76.7801 12.3182   1
  -3   1 -13 95.3648 13.3078   1
  -4  -1 -13 198.281 18.3362   1
  -4  -1 -13 245.693 11.9457   2
  -4  -1 -13 230.710 19.1534   1
  -4   1 -13 250.264 19.1916   1
  -4   1 -13 238.463 11.9471   2
  -4   1 -13 240.861 11.7878   3
  -4   1 -13 256.639 20.6962   1
  -4   1 -13 261.603 11.7428   3
  -5  -1 -13 7.74022 6.63874   1
  -5  -1 -13 3.48671 6.33288   1
  -5  -1 -13 1.04448 3.45540   2
  -5   1 -13 7.65991 3.57719   2
  -5   1 -13 2.35084 6.83425   1
  -5   1 -13 -3.5794 7.10556   1
  -5   1 -13 3.36326 3.80876   3
  -6  -1 -13 9.88064 7.72145   1
  -6  -1 -13 1.95805 3.50853   2
  -6  -1 -13 6.39160 7.26522   1
  -6   1 -13 4.37100 3.21045   2
  -6   1 -13 -0.0372 7.52450   1
  -6   1 -13 14.7271 8.00263   1
  -7  -1 -13 3.49253 3.99855   2
  -7  -1 -13 -8.6377 7.17280   1
  -7  -1 -13 -6.1994 5.48435   1
  -7   1 -13 -8.5356 7.58361   1
  -7   1 -13 11.5163 8.43162   1
  -7   1 -13 2.72215 3.22220   2
  -8  -1 -13 7.34212 7.83483   1
  -8  -1 -13 -1.1661 8.32833   1
  -8  -1 -13 8.78626 4.41177   2
  -8   1 -13 8.15554 8.81544   1
  -9  -1 -13 61.2741 5.92186   2
  -9  -1 -13 67.4070 10.9852   1
  -9  -1 -13 67.4494 12.9113   1
  -9   1 -13 52.5406 12.3300   1
  -9   1 -13 50.8785 6.41761   3
  -9   1 -13 57.4323 6.49167   3
  -9   1 -13 49.1313 5.34761   2
  -9   1 -13 55.7324 18.4610   1
 -10  -1 -13 -1.1305 9.01422   1
 -10  -1 -13 -4.1425 6.93102   1
 -10  -1 -13 4.54830 3.83679   2
 -10   1 -13 2.96730 3.24651   3
 -10   1 -13 2.27267 3.89389   2
 -10   1 -13 6.61093 8.32499   1
 -10   1 -13 1.60165 2.65617   3
 -10   1 -13 3.38929 9.75158   1
 -11  -1 -13 -4.0922 3.98343   2
 -11  -1 -13 8.55424 8.14450   1
 -11  -1 -13 -5.3525 7.17148   1
 -11   1 -13 10.1682 9.84655   1
 -11   1 -13 1.93921 2.57363   3
 -11   1 -13 -7.6903 8.00223   1
 -11   1 -13 2.27446 3.39285   2
 -12  -1 -13 27.3045 4.78580   2
 -12  -1 -13 12.6551 12.9264   1
 -12  -1 -13 36.8068 10.1806   1
 -12   1 -13 23.7987 10.4620   1
 -12   1 -13 29.1543 11.6391   1
 -12   1 -13 34.1800 4.82112   2
 -13  -1 -13 83.4403 19.2631   1
 -13  -1 -13 86.9736 8.19246   2
 -13  -1 -13 66.1784 13.9044   1
 -13   1 -13 87.6679 7.67320   2
 -13   1 -13 54.9899 14.6544   1
 -13   1 -13 62.5684 15.0212   1
 -14  -1 -13 181.840 11.4514   2
 -14  -1 -13 210.902 28.8266   1
 -14  -1 -13 189.049 22.4818   1
 -14   1 -13 195.249 23.6206   1
 -14   1 -13 188.290 10.9479   2
 -15  -1 -13 95.6181 16.4307   1
 -15  -1 -13 91.9105 8.48648   2
 -15   1 -13 56.4598 15.3945   1
 -15   1 -13 85.3292 8.09314   2
 -15   1 -13 99.2037 20.0793   1
 -16  -1 -13 1.31508 4.05741   2
 -16   1 -13 23.9222 27.9863   1
  19  -2 -13 1.56317 6.53965   3
  19   2 -13 0.67255 2.37715   2
  19   2 -13 -6.9838 11.5234   1
  19   2 -13 1.23803 6.94926   3
 -19   2  13 1.84315 8.88469   1
 -18  -2  13 11.1499 14.3304   1
  18  -2 -13 4.79178 6.54179   3
  18   2 -13 15.2102 6.97801   3
  18   2 -13 5.05252 2.67998   2
  18   2 -13 -1.0171 9.69693   1
 -18   2  13 -3.5754 7.17021   1
  17  -2 -13 -0.8595 6.27320   3
  17  -2 -13 -7.9643 7.25669   1
 -17  -2  13 11.5366 12.1123   1
  17   2 -13 -2.9367 5.88228   3
  17   2 -13 -8.2506 8.74500   1
 -17   2  13 1.82804 6.87697   1
  17   2 -13 -2.2590 2.40842   2
  16  -2 -13 33.9255 9.73629   1
 -16  -2  13 18.0108 13.5181   1
  16  -2 -13 60.2975 8.84515   3
  16   2 -13 48.7178 7.51278   3
  16   2 -13 52.3494 12.6175   1
 -16   2  13 35.4826 7.86143   1
  16   2 -13 31.9109 4.03087   2
  15  -2 -13 21.8819 8.30720   1
 -15  -2  13 27.9592 11.9627   1
  15  -2 -13 37.2877 10.5187   3
  15  -2 -13 27.4352 3.13485   2
  15   2 -13 38.5965 12.5654   1
  15   2 -13 50.3495 11.0961   3
  15   2 -13 22.1689 3.56558   2
 -15   2  13 24.5633 7.22406   1
  14  -2 -13 -13.366 5.84130   1
 -14  -2  13 16.6365 10.1273   1
  14  -2 -13 -0.2933 6.11465   3
  14   2 -13 4.81642 6.21965   3
  14   2 -13 -1.7859 8.85222   1
  14   2 -13 0.80201 2.83079   2
  13  -2 -13 0.64005 6.04425   1
  13  -2 -13 0.22995 2.27158   2
  13  -2 -13 5.47961 6.05512   3
 -13  -2  13 -19.422 9.58923   1
  13   2 -13 1.72493 3.02899   2
  13   2 -13 1.12955 5.41863   3
  12  -2 -13 9.42700 2.68502   2
 -12  -2  13 9.63155 9.15468   1
  12  -2 -13 0.74798 6.34245   1
  12  -2 -13 5.85303 5.82125   3
 -12   2  13 5.17809 5.04308   1
  12   2 -13 0.31348 8.30351   1
  12   2 -13 3.01180 2.90818   2
  12   2 -13 5.63192 4.94996   3
  11  -2 -13 14.7583 6.49715   1
  11  -2 -13 20.3124 6.05143   3
 -11  -2  13 17.2378 10.8463   1
  11  -2 -13 10.0267 2.88638   2
  11   2 -13 20.5821 9.45862   1
  11   2 -13 6.05318 4.89374   3
  11   2 -13 9.90417 3.81944   2
  10  -2 -13 77.1957 5.72086   2
 -10  -2  13 42.4621 12.9782   1
  10  -2 -13 69.4532 10.6292   1
  10  -2 -13 78.7568 9.12131   3
  10   2 -13 79.6135 8.64125   3
  10   2 -13 61.1646 13.0147   1
  10   2 -13 65.0377 6.70028   2
   9  -2 -13 -0.2108 5.81282   1
   9  -2 -13 -0.0570 2.90381   2
   9  -2 -13 -5.1896 4.79325   3
  -9  -2  13 -0.2449 9.30054   1
   9   2 -13 -11.021 6.73340   1
   9   2 -13 -0.2111 4.31060   3
   9   2 -13 -0.5456 3.27369   2
   8  -2 -13 94.8145 9.25376   3
  -8  -2  13 91.1458 15.3507   1
   8  -2 -13 99.9226 6.73381   2
   8  -2 -13 73.8454 12.4194   1
   8   2 -13 124.464 8.91783   3
   8   2 -13 92.5031 7.39006   2
   8   2 -13 87.2603 13.6799   1
   7  -2 -13 5.79146 5.00236   3
   7  -2 -13 8.74376 3.49100   2
  -7  -2  13 -0.9253 8.23732   1
   7   2 -13 12.5343 7.96645   1
   7   2 -13 12.9875 3.84473   2
   7   2 -13 12.5670 4.89806   3
   6  -2 -13 163.197 10.8815   3
   6  -2 -13 156.523 8.49361   2
   6  -2 -13 159.794 16.5507   1
  -6  -2  13 132.135 16.2957   1
   6   2 -13 141.258 8.91202   2
   6   2 -13 162.590 9.65917   3
   6   2 -13 134.557 15.7924   1
   5  -2 -13 16.0466 6.85944   1
   5  -2 -13 24.8473 5.79269   3
   5  -2 -13 19.8479 3.84884   2
  -5  -2  13 7.62919 8.83636   1
   5   2 -13 24.3404 9.02414   1
   5   2 -13 24.4673 4.34959   2
   5   2 -13 20.5791 4.35523   3
   4  -2 -13 50.7382 8.97096   1
   4  -2 -13 52.7181 6.08769   2
  -4  -2  13 78.9825 13.2562   1
   4  -2 -13 64.2895 7.09626   3
   4   2 -13 51.4140 6.24436   3
   4   2 -13 54.1665 10.6588   1
   4   2 -13 65.2860 6.40642   2
   3  -2 -13 12.0134 5.38473   3
   3  -2 -13 3.53782 5.71186   1
  -3  -2  13 19.9890 9.44499   1
   3  -2 -13 1.70982 3.14035   2
   3   2 -13 2.09636 7.32764   1
   3   2 -13 11.1154 3.48442   3
   3   2 -13 4.88083 3.28076   2
  -2  -2  13 6.92148 7.51347   1
   2  -2 -13 1.74797 3.25272   2
   2  -2 -13 1.38233 5.61278   1
   2   2 -13 0.78977 5.41665   3
   2   2 -13 4.37712 3.23329   2
   2   2 -13 -7.4612 5.90677   1
   1  -2 -13 -5.4200 5.33965   1
  -1  -2  13 14.6939 8.58040   1
   1  -2 -13 13.5632 6.85932   1
   1  -2 -13 13.1560 4.06137   2
   1   2 -13 6.18782 3.36517   2
   1   2 -13 10.0746 3.22028   3
   1   2 -13 11.6394 7.83329   1
   0  -2  13 6.26104 7.93892   1
   0  -2 -13 11.4339 6.38627   1
   0  -2 -13 18.9312 7.21337   1
   0  -2 -13 7.98855 3.50972   2
   0   2 -13 16.4777 8.34283   1
   0   2 -13 10.1249 3.47266   2
  -1  -2 -13 9.35740 4.06638   2
   1  -2  13 -1.8219 6.66866   1
  -1  -2 -13 4.74523 6.51925   1
  -1  -2 -13 5.04649 6.37317   1
  -1   2 -13 5.31414 2.85422   3
  -1   2 -13 -3.2723 7.73828   1
  -1   2 -13 7.73665 3.71228   2
  -2  -2 -13 90.6903 12.1133   1
  -2  -2 -13 67.4601 10.5248   1
  -2  -2 -13 78.2402 7.05601   2
  -2   2 -13 74.7130 5.35523   3
  -2   2 -13 79.5965 7.11306   2
  -2   2 -13 57.9123 19.5017   1
  -3  -2 -13 15.4924 3.90787   2
  -3  -2 -13 16.7770 7.27006   1
  -3  -2 -13 7.06754 7.11937   1
  -3   2 -13 26.6097 9.47959   1
  -3   2 -13 13.3864 2.82369   3
  -3   2 -13 15.0852 2.88716   3
  -3   2 -13 14.0446 3.67321   2
  -3   2 -13 5.57000 9.02905   1
  -4  -2 -13 13.2334 6.71315   1
  -4  -2 -13 5.52737 7.14193   1
  -4  -2 -13 3.47158 3.67560   2
  -4   2 -13 4.71875 3.58410   2
  -4   2 -13 12.4771 8.73397   1
  -4   2 -13 12.0401 7.64977   1
  -4   2 -13 5.62254 2.39518   3
  -4   2 -13 3.21168 2.23164   3
  -5  -2 -13 16.6835 7.61830   1
  -5  -2 -13 10.4882 7.89944   1
  -5   2 -13 34.0524 6.82675   2
  -5   2 -13 25.5676 2.99046   3
  -5   2 -13 38.5565 9.67915   1
  -5   2 -13 17.9205 8.43044   1
  -5   2 -13 31.3763 3.14056   3
  -6  -2 -13 46.4818 5.31821   2
  -6  -2 -13 59.0734 10.6491   1
  -6  -2 -13 50.8413 10.1647   1
  -6   2 -13 71.5099 13.2383   1
  -6   2 -13 47.6584 6.80916   2
  -6   2 -13 50.1651 3.90686   3
  -6   2 -13 59.2420 11.9824   1
  -6   2 -13 45.4807 3.90518   3
  -7  -2 -13 31.7576 9.24254   1
  -7  -2 -13 53.3864 5.80853   2
  -7  -2 -13 51.9262 10.9266   1
  -7   2 -13 49.2564 11.4257   1
  -7   2 -13 55.5590 11.8532   1
  -7   2 -13 53.8983 3.72974   3
  -7   2 -13 51.2958 3.73222   3
  -7   2 -13 43.8542 5.12014   2
  -8  -2 -13 32.5075 9.43061   1
  -8  -2 -13 44.6261 5.70785   2
  -8   2 -13 29.3513 2.98959   3
  -8   2 -13 31.4435 4.60275   2
  -8   2 -13 42.7993 11.0599   1
  -8   2 -13 34.9202 10.4673   1
  -9  -2 -13 146.895 10.0845   2
  -9  -2 -13 168.416 18.4858   1
  -9  -2 -13 193.734 29.1630   1
  -9   2 -13 164.377 9.82362   2
  -9   2 -13 188.116 19.1126   1
  -9   2 -13 162.315 7.78596   3
  -9   2 -13 147.761 6.51610   3
  -9   2 -13 151.005 17.1795   1
 -10  -2 -13 96.0731 17.1009   1
 -10  -2 -13 98.0463 15.3598   1
 -10  -2 -13 95.4080 8.77389   2
 -10   2 -13 90.3545 4.06675   3
 -10   2 -13 90.8610 7.94490   2
 -10   2 -13 98.8544 14.9436   1
 -10   2 -13 73.4183 13.1070   1
 -11  -2 -13 7.03019 4.27969   2
 -11  -2 -13 -4.6405 8.37945   1
 -11  -2 -13 9.96547 11.1418   1
 -11   2 -13 30.6155 18.6251   1
 -11   2 -13 12.5591 4.09595   2
 -11   2 -13 -4.3700 10.3643   1
 -12  -2 -13 -1.2221 8.49136   1
 -12  -2 -13 2.60163 4.76384   2
 -12   2 -13 -10.237 8.76615   1
 -12   2 -13 2.18354 3.53175   2
 -12   2 -13 1.42762 11.2097   1
 -13  -2 -13 272.286 14.4387   2
 -13  -2 -13 252.879 23.8984   1
 -13   2 -13 283.346 13.6717   2
 -13   2 -13 261.774 27.6021   1
 -14  -2 -13 14.5408 5.09637   2
 -14   2 -13 4.31721 12.9985   1
 -14   2 -13 8.59863 4.29454   2
 -15  -2 -13 156.735 12.5195   2
 -15   2 -13 167.835 10.1311   2
 -17  -3  13 46.0606 20.3868   1
  17  -3 -13 6.46699 6.53716   3
  17   3 -13 9.90046 3.62332   2
  17   3 -13 5.21383 13.0740   1
  17   3 -13 15.4884 6.84141   3
  16  -3 -13 51.5808 7.91731   3
 -16  -3  13 36.9570 15.8019   1
  16  -3 -13 23.8884 8.33297   1
  16   3 -13 23.0404 12.9289   1
  16   3 -13 32.5893 7.59718   3
  16   3 -13 29.4172 4.33653   2
  15  -3 -13 -2.8463 5.77394   3
 -15  -3  13 -0.5897 12.0256   1
  15  -3 -13 3.45186 6.55389   1
  15  -3 -13 -1.0216 1.57365   2
  15   3 -13 -1.7356 6.25499   3
  15   3 -13 3.37849 3.25767   2
  15   3 -13 1.33709 11.1008   1
  14  -3 -13 24.3528 8.02805   1
 -14  -3  13 -3.0939 13.9007   1
  14  -3 -13 27.4137 6.71937   3
  14   3 -13 37.4706 8.90282   3
  14   3 -13 9.08391 11.2430   1
  14   3 -13 20.7299 3.97936   2
  13  -3 -13 27.2555 7.52773   3
  13  -3 -13 23.5929 2.85472   2
 -13  -3  13 13.4756 13.0577   1
  13  -3 -13 23.6967 3.18750   2
  13  -3 -13 18.4571 7.38609   1
  13   3 -13 26.0635 4.85147   2
  13   3 -13 32.3355 6.63968   3
  13   3 -13 23.0635 10.3293   1
  12  -3 -13 7.46702 2.84295   2
  12  -3 -13 8.71400 8.98424   3
  12  -3 -13 4.81185 2.16271   2
  12  -3 -13 11.5202 6.83535   1
 -12  -3  13 7.87531 11.4409   1
  12   3 -13 5.86089 3.96392   2
  12   3 -13 3.61633 8.54589   1
  12   3 -13 9.93157 5.17100   3
  11  -3 -13 2.24999 5.88757   1
  11  -3 -13 -0.1058 2.74993   2
 -11  -3  13 17.8337 12.0665   1
  11  -3 -13 0.48012 5.11391   3
  11   3 -13 -1.0129 9.67158   1
  11   3 -13 5.04630 4.04947   2
  11   3 -13 -2.7419 4.52831   3
  10  -3 -13 15.5153 5.60932   3
  10  -3 -13 10.4700 3.17623   2
 -10  -3  13 12.3101 11.0491   1
  10  -3 -13 19.2120 6.33227   1
  10   3 -13 12.2616 10.0555   1
  10   3 -13 9.51487 5.32144   3
  10   3 -13 12.8911 4.43315   2
   9  -3 -13 93.4103 9.72325   3
  -9  -3  13 82.1321 14.7957   1
   9  -3 -13 93.9834 6.58565   2
   9  -3 -13 77.5766 10.2687   1
   9   3 -13 88.2134 8.76784   3
   9   3 -13 85.3158 8.57439   2
   9   3 -13 65.4093 13.0509   1
   8  -3 -13 8.16260 3.42902   2
  -8  -3  13 6.44246 9.61605   1
   8  -3 -13 11.9258 6.04603   1
   8  -3 -13 5.14274 5.28223   3
   8   3 -13 6.29583 8.42738   1
   8   3 -13 16.3193 4.64780   3
   8   3 -13 6.88372 5.65432   2
   7  -3 -13 7.51378 5.43920   1
   7  -3 -13 9.58063 3.27421   2
  -7  -3  13 -5.9304 9.28064   1
   7  -3 -13 9.70318 5.41154   3
   7   3 -13 0.91833 7.90400   1
   7   3 -13 2.45798 7.28355   2
   7   3 -13 4.72563 4.40250   3
   6  -3 -13 25.7145 4.21898   2
   6  -3 -13 28.7532 6.79439   1
  -6  -3  13 25.0938 11.2169   1
   6  -3 -13 31.4723 6.29165   3
   6   3 -13 23.6231 10.3627   1
   6   3 -13 35.0367 6.17647   2
   6   3 -13 20.3082 4.48648   3
   5  -3 -13 0.95041 5.30993   1
  -5  -3  13 13.5813 9.48216   1
   5  -3 -13 3.60953 5.22089   3
   5  -3 -13 6.54476 3.66450   2
   5   3 -13 5.59444 8.54230   1
   5   3 -13 3.60562 3.78463   3
   5   3 -13 0.68632 4.85369   2
   4  -3 -13 18.6645 4.22372   2
   4  -3 -13 6.67573 5.57446   1
   4  -3 -13 10.5901 5.42541   3
  -4  -3  13 13.6361 10.5047   1
   4   3 -13 12.7996 3.77394   3
   4   3 -13 -2.7912 7.33703   1
   3  -3 -13 25.0026 6.56133   1
   3  -3 -13 31.9321 4.81102   2
  -3  -3  13 21.8300 9.88683   1
   3   3 -13 22.7928 3.95672   3
   3   3 -13 16.8813 8.79955   1
   3   3 -13 19.7013 5.57674   2
   2  -3 -13 7.31198 5.72652   1
   2  -3 -13 12.0458 3.87019   2
  -2  -3  13 4.01377 7.94736   1
   2   3 -13 21.5095 9.25259   1
   2   3 -13 11.7722 5.30691   2
   2   3 -13 9.00533 3.29974   3
  -1  -3  13 42.2915 11.6993   1
   1  -3 -13 11.5819 6.32972   1
   1  -3 -13 19.9740 4.38297   2
   1   3 -13 18.2019 8.66715   1
   1   3 -13 20.4900 4.44063   2
   1   3 -13 22.6743 3.72803   3
   0  -3 -13 24.5180 4.92771   2
   0  -3 -13 17.6586 6.76390   1
   0  -3  13 43.2876 11.8177   1
   0   3 -13 34.6880 3.63930   3
   0   3 -13 43.3619 10.7466   1
   0   3 -13 21.7770 4.14048   2
   1  -3  13 41.2265 11.7211   1
  -1  -3 -13 11.8661 7.29979   1
  -1  -3 -13 22.8388 7.44211   1
  -1   3 -13 23.1238 4.47580   2
  -1   3 -13 13.9143 8.15856   1
  -1   3 -13 24.1845 3.05604   3
   2  -3  13 170.574 18.5645   1
  -2  -3 -13 128.675 13.9852   1
  -2  -3 -13 151.391 14.1629   1
  -2  -3 -13 148.413 9.62068   2
  -2   3 -13 130.645 17.0343   1
  -2   3 -13 131.372 6.51137   3
  -2   3 -13 135.886 9.36436   2
  -3  -3 -13 -0.3928 6.50527   1
  -3  -3 -13 5.13219 8.14565   1
  -3  -3 -13 3.54787 4.12736   2
  -3   3 -13 3.30313 3.50383   2
  -3   3 -13 7.41896 8.38309   1
  -3   3 -13 6.91316 7.98924   1
  -3   3 -13 6.58697 1.92719   3
  -4  -3 -13 10.9166 7.23533   1
  -4  -3 -13 10.6222 7.48377   1
  -4  -3 -13 15.6203 4.54790   2
  -4   3 -13 12.0587 1.46385   3
  -4   3 -13 8.71174 3.70561   2
  -4   3 -13 10.3214 8.38387   1
  -4   3 -13 7.74232 7.87450   1
  -5  -3 -13 -1.3109 4.40750   2
  -5  -3 -13 2.88585 7.35153   1
  -5  -3 -13 0.99931 6.37281   1
  -5   3 -13 -6.4562 7.87010   1
  -5   3 -13 2.90063 4.10893   2
  -5   3 -13 6.20515 9.40492   1
  -6  -3 -13 57.0571 6.53240   2
  -6  -3 -13 35.3272 9.75650   1
  -6   3 -13 48.9190 12.5620   1
  -6   3 -13 48.8163 5.81154   2
  -6   3 -13 55.6569 12.2189   1
  -7  -3 -13 100.581 8.82433   2
  -7  -3 -13 85.5176 12.8669   1
  -7   3 -13 93.9640 8.12507   2
  -7   3 -13 87.4245 14.0673   1
  -8  -3 -13 47.5377 10.4774   1
  -8  -3 -13 40.7578 5.57973   2
  -8   3 -13 12.5849 10.0459   1
  -8   3 -13 22.6496 10.2239   1
  -8   3 -13 40.1867 5.02409   2
  -9  -3 -13 6.09211 8.12988   1
  -9  -3 -13 3.31148 4.72486   2
  -9   3 -13 11.3334 10.9308   1
  -9   3 -13 5.13447 3.83971   2
  -9   3 -13 13.0845 10.3727   1
 -10  -3 -13 33.0329 10.4293   1
 -10  -3 -13 25.4669 5.24492   2
 -10   3 -13 37.2587 12.9714   1
 -10   3 -13 55.8008 5.97011   2
 -11  -3 -13 13.8692 5.22976   2
 -11  -3 -13 -9.4067 10.0960   1
 -11   3 -13 1.72464 14.1584   1
 -11   3 -13 8.75950 4.02566   2
 -12  -3 -13 42.7609 6.29468   2
 -12   3 -13 17.8122 4.25902   2
 -13  -3 -13 19.8061 7.18247   2
 -13   3 -13 47.2772 5.83430   2
  14  -4 -13 14.8613 6.42215   3
 -14  -4  13 3.15091 15.9226   1
  14  -4 -13 11.0568 2.64120   2
  14   4 -13 11.6843 5.23133   3
  14   4 -13 8.26813 4.11379   2
 -13  -4  13 -4.7167 14.5850   1
  13  -4 -13 12.9821 6.47438   3
  13  -4 -13 15.1077 8.82657   1
  13  -4 -13 19.0659 3.04849   2
  13   4 -13 16.8033 5.65650   3
  13   4 -13 12.2446 4.54466   2
  12  -4 -13 4.34535 2.95519   2
  12  -4 -13 9.86064 6.37920   3
  12  -4 -13 -3.6803 5.13272   1
  12   4 -13 1.65281 4.08311   2
  12   4 -13 -8.2323 5.21390   3
  11  -4 -13 37.3701 6.50484   1
  11  -4 -13 46.8488 7.88318   3
 -11  -4  13 23.8699 16.4534   1
  11  -4 -13 32.2321 4.01445   2
  11   4 -13 23.8059 4.73073   2
  11   4 -13 29.5793 5.48203   3
  10  -4 -13 56.2425 7.66903   1
 -10  -4  13 69.9629 16.7370   1
  10  -4 -13 77.3660 6.48181   2
  10  -4 -13 82.5411 10.3946   3
  10   4 -13 57.3398 6.34056   2
  10   4 -13 30.9811 13.9978   1
  10   4 -13 69.9290 8.27041   3
   9  -4 -13 -6.5891 5.99840   3
  -9  -4  13 1.56818 11.9568   1
   9  -4 -13 3.41489 3.39955   2
   9  -4 -13 1.11980 4.73135   1
   9   4 -13 -0.9136 4.10351   3
   9   4 -13 -14.985 9.86920   1
   9   4 -13 -0.8765 3.93228   2
   8  -4 -13 39.4669 4.55185   2
   8  -4 -13 48.9811 7.92577   3
   8  -4 -13 31.1083 6.22132   1
  -8  -4  13 39.8591 13.5773   1
   8   4 -13 42.0541 10.8133   1
   8   4 -13 40.5455 5.78120   2
   8   4 -13 38.3296 5.49104   3
  -7  -4  13 -1.6395 10.7134   1
   7  -4 -13 14.2100 4.29019   2
   7  -4 -13 13.0671 7.87445   3
   7  -4 -13 7.18974 5.05543   1
   7   4 -13 8.82359 4.04506   3
   7   4 -13 5.83709 10.0866   1
   7   4 -13 10.2091 4.25439   2
   6  -4 -13 9.40316 5.09466   1
  -6  -4  13 19.1461 12.6279   1
   6  -4 -13 8.89387 8.62279   3
   6   4 -13 2.38723 4.00049   2
   6   4 -13 -2.3830 8.50662   1
   6   4 -13 9.21003 3.62623   3
   5  -4 -13 17.8474 5.50728   1
   5  -4 -13 -1.1523 9.83935   3
   5  -4 -13 8.47896 4.12912   2
  -5  -4  13 27.9194 11.9484   1
   5   4 -13 16.8573 4.90112   2
   5   4 -13 6.58474 8.98669   1
   5   4 -13 10.6801 3.40055   3
   4  -4 -13 -2.1866 4.88735   1
   4  -4 -13 -0.4506 4.05115   2
  -4  -4  13 3.56066 10.0923   1
   4   4 -13 -0.2475 4.54911   2
   4   4 -13 -1.2889 2.84735   3
   4   4 -13 10.3857 8.65768   1
   3  -4 -13 35.9051 5.20227   2
   3  -4 -13 32.9799 7.03367   1
  -3  -4  13 33.9023 13.3537   1
   3   4 -13 18.3315 10.7819   1
   3   4 -13 37.7583 4.95288   3
   3   4 -13 41.3698 6.11575   2
   2  -4 -13 5.27218 3.89495   2
  -2  -4  13 3.72421 10.0671   1
   2   4 -13 13.5004 9.22095   1
   2   4 -13 -1.9386 4.15985   2
   1  -4 -13 5.50463 4.35201   2
  -1  -4  13 -2.8779 10.1348   1
   1   4 -13 2.13970 2.20794   3
   1   4 -13 -1.0042 3.88445   2
   1   4 -13 15.8430 8.13688   1
   0  -4  13 -2.6218 10.4265   1
   0  -4 -13 6.32995 4.44239   2
   0  -4 -13 -9.3101 5.03419   1
   0   4 -13 29.4239 9.81610   1
   0   4 -13 0.28944 1.81344   3
   0   4 -13 -2.8513 4.15384   2
   1  -4  13 9.99496 12.4281   1
  -1  -4 -13 -2.9013 5.91288   1
  -1  -4 -13 0.98006 3.95429   2
  -1   4 -13 1.18152 4.50302   2
  -1   4 -13 7.48702 9.24378   1
  -2  -4 -13 -2.5688 3.95623   2
  -2  -4 -13 12.5188 6.67210   1
  -2   4 -13 -0.4390 4.14844   2
  -2   4 -13 -1.4256 8.64053   1
  -3  -4 -13 7.38365 7.41246   1
  -3  -4 -13 10.8802 4.45673   2
  -3   4 -13 24.4543 12.3808   1
  -3   4 -13 5.84138 4.58857   2
  -4  -4 -13 0.90833 4.49102   2
  -4  -4 -13 3.79542 7.52626   1
  -4   4 -13 -11.881 10.2160   1
  -4   4 -13 3.88130 4.93606   2
  -5  -4 -13 119.713 15.5256   1
  -5  -4 -13 120.551 10.0982   2
  -5   4 -13 114.971 9.76817   2
  -5   4 -13 109.422 16.6609   1
  -6  -4 -13 55.7292 11.1422   1
  -6  -4 -13 89.0596 7.97405   2
  -6   4 -13 68.0162 14.4799   1
  -6   4 -13 45.3556 5.88914   2
  -7  -4 -13 27.5988 5.88514   2
  -7  -4 -13 7.37559 9.16339   1
  -7   4 -13 14.1280 12.8405   1
  -7   4 -13 10.0115 4.51538   2
  -8  -4 -13 12.0044 4.89725   2
  -8   4 -13 13.6691 4.48211   2
  -9   4 -13 1.28663 3.79376   2
 -10  -4 -13 2.21343 4.62258   2
 -10   4 -13 -2.5933 3.89952   2
   9  -5 -13 3.57513 6.56701   3
   9  -5 -13 1.32763 3.65708   2
   9   5 -13 -1.9968 3.57473   3
   9   5 -13 -1.0268 4.52878   2
   8  -5 -13 -0.2227 3.66887   2
   8  -5 -13 -0.6594 6.39792   3
   8   5 -13 0.99824 5.66881   2
   8   5 -13 6.22473 3.66978   3
   7  -5 -13 -0.5440 6.34052   3
   7  -5 -13 2.50528 3.97547   2
   7   5 -13 2.39443 3.35578   3
   6  -5 -13 -3.1903 5.81217   3
   6  -5 -13 3.94282 4.13487   2
   6   5 -13 6.15971 5.99463   2
   6   5 -13 -0.0068 3.00227   3
   5  -5 -13 4.82651 6.24914   3
   5  -5 -13 1.11548 3.99398   2
   5   5 -13 3.43816 2.95269   3
   5   5 -13 5.28578 5.27893   2
   4  -5 -13 8.46964 6.72070   3
   4  -5 -13 4.50584 3.99183   2
   4   5 -13 5.52232 2.82567   3
   4   5 -13 2.26814 5.11285   2
   3  -5 -13 5.03909 4.71978   2
   3   5 -13 -3.5641 4.65940   2
   2  -5 -13 0.93041 3.99575   2
   2   5 -13 1.36518 4.87071   2
   2   5 -13 0.84412 1.90889   3
   1  -5 -13 3.11285 5.07047   2
   1  -5 -13 5.28165 6.27378   1
   1   5 -13 8.29993 6.45107   2
   0  -5 -13 42.1757 6.19378   2
   0   5 -13 37.1536 8.91448   2
  -1  -5 -13 -7.5261 7.60103   1
  -1  -5 -13 16.0563 5.00623   2
  -1   5 -13 9.06141 8.98056   2
  -2  -5 -13 9.52630 6.85343   1
  -2  -5 -13 4.15850 5.21336   2
  -2   5 -13 1.68798 9.16424   2
  -3   5 -13 -0.2603 7.78610   2
  -4  -5 -13 10.2782 5.26044   2
  -4   5 -13 9.66804 6.55335   2
  20   0 -14 20.8410 7.20292   3
  19   0 -14 18.7828 8.13489   3
  18   0 -14 24.1869 3.25150   2
 -18   0  14 28.5957 14.0025   1
  18   0 -14 1.07151 10.6184   1
  18   0 -14 14.0390 6.85151   3
 -17   0  14 18.2291 11.5593   1
  17   0 -14 3.56413 8.66960   1
  17   0 -14 0.99599 2.11284   2
  17   0 -14 -3.5322 5.52649   3
 -16   0  14 18.0260 10.2299   1
  16   0 -14 -3.7769 5.95577   3
  16   0 -14 2.39096 7.17346   1
  16   0 -14 0.02432 1.98943   2
 -16   0  14 0.44692 2.09220   2
 -15   0  14 16.5094 9.20574   1
  15   0 -14 8.91821 8.61534   3
  15   0 -14 -9.1632 7.15180   1
  14   0 -14 2.99088 8.69684   1
 -14   0  14 4.36868 2.44982   2
 -14   0  14 -9.0408 7.15271   1
  14   0 -14 0.87375 5.60902   3
  14   0 -14 3.53059 2.50914   2
  13   0 -14 8.69117 12.3260   1
  13   0 -14 14.1693 5.66530   3
  13   0 -14 15.8344 3.03895   2
 -13   0  14 1.53164 6.77218   1
  12   0 -14 27.4067 3.65770   2
 -12   0  14 25.7897 3.92759   2
  12   0 -14 35.9223 10.3006   1
  12   0 -14 27.2897 5.85208   3
  11   0 -14 46.6164 5.55847   2
  11   0 -14 23.1031 8.47190   1
 -11   0  14 65.2291 5.49021   2
  11   0 -14 65.8401 7.78149   3
  10   0 -14 140.713 10.8888   3
 -10   0  14 134.553 7.73555   2
  10   0 -14 122.876 7.67931   2
  10   0 -14 113.040 15.8563   1
   9   0 -14 29.1287 4.03561   2
   9   0 -14 28.4765 5.83761   3
  -9   0  14 25.9164 3.59798   2
   9   0 -14 27.8593 8.90864   1
   8   0 -14 160.391 8.84790   2
   8   0 -14 147.577 19.3107   1
  -8   0  14 146.285 8.49444   2
   8   0 -14 163.766 10.7040   3
  -7   0  14 0.59089 12.0543   1
   7   0 -14 -4.2858 4.72778   3
   7   0 -14 1.94896 3.12855   2
   7   0 -14 -0.7633 6.68446   1
  -7   0  14 -1.4369 3.89997   2
  -6   0  14 59.3803 11.2410   1
   6   0 -14 68.9727 6.54959   2
   6   0 -14 84.5064 8.13013   3
   6   0 -14 60.5387 10.4895   1
   5   0 -14 465.058 19.7359   3
   5   0 -14 469.000 27.9040   1
   5   0 -14 452.533 18.7917   2
  -5   0  14 427.303 26.4829   1
   4   0 -14 5.64054 4.61175   3
   4   0 -14 -6.9318 8.12168   1
   4   0 -14 2.40000 3.70997   2
  -4   0  14 1.05869 7.53641   1
   3   0 -14 743.049 29.0647   2
  -3   0  14 743.274 37.0702   1
   3   0 -14 749.289 29.5567   3
   2   0 -14 357.909 24.8933   1
   2   0 -14 391.375 17.0869   3
   2   0 -14 390.135 16.6994   2
   1   0 -14 37.5004 5.05241   2
   1   0 -14 21.4417 8.60718   1
   1   0 -14 35.0767 4.89650   3
   0   0 -14 52.5028 5.29392   2
   0   0 -14 50.0962 10.8286   1
   0   0 -14 52.7784 6.61690   3
  -1   0 -14 32.5744 8.94648   1
  -1   0 -14 25.1705 4.30003   3
  -1   0 -14 28.4951 4.22727   2
  -2   0 -14 54.5508 10.4095   1
  -2   0 -14 49.3681 10.3218   1
  -2   0 -14 66.4587 6.17803   2
  -2   0 -14 69.9030 6.77862   3
  -3   0 -14 53.4629 11.0905   1
  -3   0 -14 51.3061 10.9134   1
  -3   0 -14 53.2244 6.63323   3
  -3   0 -14 44.3607 4.96047   2
  -4   0 -14 -5.3252 7.06181   1
  -4   0 -14 9.97499 6.98002   1
  -4   0 -14 6.92652 3.48340   2
  -4   0 -14 5.50132 3.95327   3
  -5   0 -14 105.046 14.3720   1
  -5   0 -14 121.259 15.2095   1
  -6   0 -14 5.11578 7.10733   1
  -6   0 -14 -1.3830 7.33667   1
  -6   0 -14 0.03033 4.00913   2
  -7   0 -14 169.346 10.5555   2
  -7   0 -14 189.662 18.4753   1
  -7   0 -14 204.578 19.5971   1
  -8   0 -14 349.349 25.5992   1
  -8   0 -14 389.603 27.2349   1
  -8   0 -14 387.174 17.0308   2
  -9   0 -14 56.8624 12.5773   1
  -9   0 -14 62.3467 7.16470   2
  -9   0 -14 47.2311 12.8320   1
 -10   0 -14 12.6810 4.21667   2
 -10   0 -14 8.54381 10.0906   1
 -10   0 -14 -0.6220 10.6461   1
 -11   0 -14 63.2448 13.6974   1
 -11   0 -14 69.6045 6.69060   2
 -11   0 -14 74.9258 14.2361   1
 -12   0 -14 132.186 18.1798   1
 -12   0 -14 142.623 9.73762   2
 -12   0 -14 138.445 18.9111   1
 -13   0 -14 124.773 9.26257   2
 -13   0 -14 98.2325 15.9817   1
 -13   0 -14 111.701 21.6707   1
 -14   0 -14 7.95962 18.5186   1
 -14   0 -14 37.3881 13.8594   1
 -14   0 -14 44.0380 5.96326   2
 -15   0 -14 279.600 14.3380   2
 -15   0 -14 282.825 28.5375   1
  19  -1 -14 4.28084 6.47748   3
  19   1 -14 3.22774 6.47400   3
  19   1 -14 9.21722 2.18548   2
  18  -1 -14 10.6543 6.56042   3
  18   1 -14 34.3756 8.42475   3
  18   1 -14 17.5090 2.73327   2
  18   1 -14 6.37491 11.7323   1
 -18   1  14 7.75831 12.9413   1
  17  -1 -14 5.33810 6.49990   3
  17  -1 -14 2.76778 1.29067   2
  17  -1 -14 8.51307 8.44993   1
  17   1 -14 2.05139 5.95011   3
 -17   1  14 13.4820 11.2451   1
  17   1 -14 2.55044 2.33959   2
  17   1 -14 8.53200 10.2042   1
  16  -1 -14 4.11164 7.56488   1
 -16  -1  14 -2.0929 2.41448   2
  16  -1 -14 2.72542 6.72885   3
  16   1 -14 -3.1358 9.41530   1
  16   1 -14 2.15349 6.33154   3
  16   1 -14 -2.1410 2.22774   2
 -16   1  14 -2.3208 8.74861   1
  15  -1 -14 4.12004 5.84532   3
 -15  -1  14 -2.7917 21.9146   1
  15  -1 -14 -12.664 6.57325   1
  15  -1 -14 2.23954 2.07433   2
 -15  -1  14 -1.4740 2.72993   2
  15   1 -14 -0.8319 6.61308   3
  15   1 -14 1.44723 9.07785   1
 -15   1  14 4.03465 8.53532   1
  15   1 -14 1.75620 2.54933   2
  14  -1 -14 38.0093 10.6320   3
  14  -1 -14 25.7212 3.17802   2
  14  -1 -14 33.6284 9.28158   1
  14   1 -14 28.4605 6.45783   3
  14   1 -14 24.2870 10.1648   1
 -14   1  14 17.6418 8.89322   1
  14   1 -14 22.8839 3.51382   2
 -13  -1  14 10.4074 16.4588   1
  13  -1 -14 7.80416 2.78109   2
  13  -1 -14 7.11962 5.94184   3
  13  -1 -14 17.6123 7.80851   1
  13   1 -14 3.54593 8.13204   1
 -13   1  14 7.73719 7.54341   1
  13   1 -14 9.71273 6.17905   3
  13   1 -14 13.6649 3.38845   2
  12  -1 -14 1.20430 2.59998   2
  12  -1 -14 0.16743 5.60677   3
 -12  -1  14 -4.3003 15.1851   1
  12  -1 -14 -7.8393 5.61087   1
  12   1 -14 -8.4092 7.50168   1
  12   1 -14 2.12256 2.78976   2
  12   1 -14 4.06288 4.88588   3
 -12   1  14 -1.6680 6.50492   1
 -11  -1  14 17.9957 11.9675   1
  11  -1 -14 -9.4977 5.60840   1
  11  -1 -14 1.61350 5.79073   3
  11  -1 -14 -0.7754 2.71010   2
  11   1 -14 5.67433 3.09000   2
 -11   1  14 -0.7502 5.08971   2
  11   1 -14 -5.0126 5.23659   3
  11   1 -14 4.39900 7.65887   1
 -11   1  14 11.6048 6.86225   1
  10  -1 -14 4.86576 6.32829   1
 -10  -1  14 0.23212 9.11882   1
  10  -1 -14 0.55735 5.28777   3
  10  -1 -14 2.86617 2.92735   2
  10   1 -14 -1.5109 4.30971   3
  10   1 -14 0.06983 6.58106   1
 -10   1  14 -6.7113 5.66161   1
 -10   1  14 2.20179 2.43477   2
  10   1 -14 -2.6887 2.75728   2
   9  -1 -14 21.3381 7.17685   1
   9  -1 -14 8.99764 5.22805   3
  -9  -1  14 13.5829 9.67348   1
   9  -1 -14 8.30434 3.22866   2
   9   1 -14 1.09404 7.43983   1
   9   1 -14 10.3652 3.31265   2
  -9   1  14 8.20075 2.71090   2
   9   1 -14 9.82315 5.13957   3
  -9   1  14 14.7157 9.51783   1
   8  -1 -14 1.88472 5.91335   1
   8  -1 -14 1.76078 3.18583   2
   8  -1 -14 5.51721 4.77636   3
  -8  -1  14 -1.6130 7.21655   1
   8   1 -14 0.99259 4.15754   3
  -8   1  14 0.93626 2.45834   2
   8   1 -14 10.0608 8.24786   1
   8   1 -14 2.96077 3.13804   2
  -7  -1  14 43.3677 10.8509   1
   7  -1 -14 38.3972 8.89336   1
   7  -1 -14 50.6205 6.20230   3
   7  -1 -14 54.4726 5.69811   2
   7   1 -14 59.6274 6.59230   3
   7   1 -14 59.2274 6.17848   2
  -7   1  14 50.8274 5.39452   2
  -7   1  14 36.0335 9.06250   1
   7   1 -14 44.3381 10.4702   1
  -6  -1  14 -5.5789 7.75550   1
   6  -1 -14 -0.1685 4.33081   3
   6  -1 -14 -1.7763 2.95512   2
   6  -1 -14 2.31233 6.13182   1
   6   1 -14 -1.8192 4.05912   3
   6   1 -14 -2.0564 6.80473   1
   6   1 -14 -0.2437 3.19464   2
  -5  -1  14 14.9960 9.62818   1
   5  -1 -14 -0.2760 6.59901   1
   5  -1 -14 2.06346 3.37564   2
   5  -1 -14 5.54079 5.18638   3
   5   1 -14 -1.2055 7.03102   1
   5   1 -14 10.5785 3.59017   2
   5   1 -14 8.22144 4.45999   3
   4  -1 -14 131.712 14.5658   1
   4  -1 -14 132.889 9.77451   3
   4  -1 -14 116.797 8.16604   2
  -4  -1  14 115.813 14.9858   1
   4   1 -14 121.647 14.9288   1
   4   1 -14 137.431 8.59095   2
   4   1 -14 129.945 8.92923   3
   3  -1 -14 -1.4223 3.07536   2
  -3  -1  14 0.68846 7.28580   1
   3  -1 -14 -3.0899 4.15661   3
   3  -1 -14 -1.5070 6.10452   1
   3   1 -14 -3.5100 3.19572   2
   3   1 -14 11.7134 7.49617   1
   3   1 -14 -3.8084 3.64449   3
   2  -1 -14 0.71187 3.15570   2
   2  -1 -14 -1.1036 5.26888   1
   2  -1 -14 5.47583 4.33982   3
  -2  -1  14 8.25411 8.20266   1
   2   1 -14 4.11396 3.71564   3
   2   1 -14 6.58621 7.04140   1
   2   1 -14 8.04673 3.54230   2
   1  -1 -14 27.6829 7.97886   1
  -1  -1  14 21.0299 9.00084   1
   1  -1 -14 20.0815 5.27169   3
   1  -1 -14 16.5486 3.77052   2
   1   1 -14 17.6780 4.03995   2
   1   1 -14 20.4166 4.15285   3
   1   1 -14 23.6270 8.54422   1
   0  -1 -14 71.3410 11.0706   1
   0  -1 -14 59.0919 6.75915   2
   0  -1 -14 66.8155 7.56513   3
   0   1 -14 59.9222 6.22038   3
   0   1 -14 60.3244 6.70900   2
   0   1 -14 50.6252 11.1730   1
  -1  -1 -14 1.08454 3.33717   2
  -1  -1 -14 7.89380 6.95479   1
  -1  -1 -14 6.10911 6.30529   1
  -1   1 -14 13.6896 8.55507   1
  -1   1 -14 7.13912 3.53770   2
  -1   1 -14 15.6077 3.60186   3
  -2  -1 -14 3.83945 6.70914   1
  -2  -1 -14 1.14292 3.99667   2
  -2  -1 -14 7.58166 7.97340   1
  -2   1 -14 0.24036 3.27882   2
  -2   1 -14 10.2100 3.64352   3
  -2   1 -14 2.41524 6.90962   1
  -3  -1 -14 45.7333 9.93583   1
  -3  -1 -14 40.6870 10.8021   1
  -3  -1 -14 41.5864 5.06217   2
  -3   1 -14 61.3993 11.5151   1
  -3   1 -14 41.3947 5.39550   3
  -3   1 -14 52.6054 17.0492   1
  -3   1 -14 51.9080 5.26481   2
  -4  -1 -14 216.280 15.8466   2
  -4  -1 -14 220.340 19.3118   1
  -4  -1 -14 259.006 19.6426   1
  -4   1 -14 237.814 22.9077   1
  -4   1 -14 255.373 21.6091   1
  -4   1 -14 230.205 10.9419   3
  -5  -1 -14 34.5851 10.4081   1
  -5  -1 -14 5.81305 4.23473   2
  -5  -1 -14 19.7268 12.2564   1
  -5   1 -14 17.5097 9.97806   1
  -5   1 -14 21.4577 3.79927   3
  -5   1 -14 15.1851 4.40618   2
  -5   1 -14 12.4451 5.27471   3
  -5   1 -14 18.1064 9.73412   1
  -6  -1 -14 197.305 17.5860   1
  -6  -1 -14 244.576 20.5421   1
  -6  -1 -14 215.082 11.3313   2
  -6   1 -14 179.152 10.9420   3
  -6   1 -14 206.252 11.2333   2
  -6   1 -14 212.480 19.5660   1
  -6   1 -14 198.627 21.0785   1
  -6   1 -14 225.715 10.1739   3
  -7  -1 -14 9.62431 8.17999   1
  -7  -1 -14 5.19937 9.65380   1
  -7  -1 -14 3.44182 3.75579   2
  -7   1 -14 5.61736 3.28144   3
  -7   1 -14 1.97013 3.39165   2
  -7   1 -14 5.80195 8.69984   1
  -7   1 -14 6.74683 8.47771   1
  -7   1 -14 2.81072 3.16412   3
  -8  -1 -14 42.3560 10.1966   1
  -8  -1 -14 84.5896 14.1199   1
  -8  -1 -14 48.6342 5.66321   2
  -8   1 -14 46.4967 11.8120   1
  -8   1 -14 67.5743 6.99045   2
  -8   1 -14 64.3132 12.3714   1
  -8   1 -14 45.4727 5.92100   3
  -8   1 -14 52.2474 5.43742   3
  -9  -1 -14 38.1405 5.67299   2
  -9  -1 -14 22.7149 11.6416   1
  -9  -1 -14 17.8605 10.2431   1
  -9   1 -14 10.3215 9.16421   1
  -9   1 -14 21.1630 4.27476   2
  -9   1 -14 35.8979 10.2572   1
  -9   1 -14 34.8174 4.19639   3
 -10  -1 -14 10.3372 9.24672   1
 -10  -1 -14 9.62372 4.10395   2
 -10   1 -14 5.60993 8.93923   1
 -10   1 -14 12.9007 10.8324   1
 -10   1 -14 13.7391 3.40203   3
 -10   1 -14 13.4753 4.48017   2
 -11  -1 -14 41.4757 5.84110   2
 -11  -1 -14 43.2261 12.7407   1
 -11  -1 -14 48.9124 12.1513   1
 -11   1 -14 43.4937 5.02835   3
 -11   1 -14 50.5401 5.60046   2
 -11   1 -14 27.9369 12.4696   1
 -11   1 -14 51.8743 12.1755   1
 -12  -1 -14 16.2919 13.0729   1
 -12  -1 -14 28.4117 11.5868   1
 -12  -1 -14 6.35920 4.36311   2
 -12   1 -14 0.47761 3.80315   2
 -12   1 -14 0.76716 10.2431   1
 -12   1 -14 8.27413 3.21413   3
 -12   1 -14 -24.137 10.4248   1
 -13  -1 -14 151.790 10.4166   2
 -13   1 -14 123.421 20.3480   1
 -13   1 -14 138.992 9.84228   2
 -13   1 -14 143.202 7.77383   3
 -14  -1 -14 2.99952 4.37597   2
 -14   1 -14 2.77028 13.5042   1
 -14   1 -14 0.33243 4.08653   2
 -14   1 -14 1.56113 2.77965   3
 -14   1 -14 27.7157 17.2000   1
 -15   1 -14 0.43307 3.61001   2
  18  -2 -14 2.43801 6.15766   3
  18   2 -14 2.70752 2.57278   2
  18   2 -14 0.09399 12.7947   1
  18   2 -14 4.25249 6.63684   3
 -17  -2  14 2.74050 15.9621   1
  17  -2 -14 -1.9975 6.10157   3
 -17   2  14 -1.5493 7.22145   1
  17   2 -14 -2.1537 2.58958   2
  17   2 -14 4.90474 6.91835   3
  17   2 -14 -5.5678 10.7110   1
 -16  -2  14 0.08026 13.4844   1
  16  -2 -14 6.21655 1.56093   2
  16  -2 -14 12.3477 7.32118   3
  16  -2 -14 -3.8160 8.58762   1
  16   2 -14 3.37476 2.99159   2
  16   2 -14 11.5497 10.9049   1
 -16   2  14 -8.0644 6.71662   1
  16   2 -14 1.44675 6.94240   3
 -15  -2  14 6.32427 12.9134   1
  15  -2 -14 -10.371 7.50021   1
  15  -2 -14 9.32971 7.30713   3
 -15   2  14 0.62696 6.24494   1
  15   2 -14 0.80817 3.08343   2
  15   2 -14 10.7189 9.45311   1
  15   2 -14 2.16894 6.13137   3
  14  -2 -14 6.85917 2.33356   2
  14  -2 -14 -3.3410 6.66243   1
 -14  -2  14 -1.5259 11.0666   1
  14  -2 -14 2.33386 6.64221   3
  14   2 -14 -1.5833 10.3259   3
  14   2 -14 4.91129 3.05028   2
 -14   2  14 2.59634 6.26355   1
  14   2 -14 12.1013 10.8602   1
  13  -2 -14 16.0416 2.93730   2
  13  -2 -14 18.5347 7.44722   1
 -13  -2  14 14.2791 10.9217   1
  13  -2 -14 5.57599 8.89875   3
  13   2 -14 8.39164 5.34053   3
  13   2 -14 17.4482 11.1943   1
 -13   2  14 14.0174 6.25928   1
  13   2 -14 16.5797 3.77127   2
  12  -2 -14 8.74571 6.39499   3
  12  -2 -14 2.99633 6.85981   1
  12  -2 -14 9.87581 2.85916   2
 -12  -2  14 6.97389 10.5096   1
  12   2 -14 13.0930 5.45985   3
  12   2 -14 0.26809 9.00366   1
  12   2 -14 6.01716 3.27236   2
  11  -2 -14 10.7176 3.06415   2
  11  -2 -14 -0.3282 5.26858   3
 -11  -2  14 2.52448 10.5347   1
  11  -2 -14 10.5448 6.36562   1
  11   2 -14 15.4843 5.73716   3
  11   2 -14 5.59172 3.59014   2
  10  -2 -14 3.60140 2.96813   2
 -10  -2  14 14.7269 10.4838   1
  10  -2 -14 9.81629 6.76318   1
  10  -2 -14 16.4884 5.55406   3
  10   2 -14 -6.5252 11.0791   1
  10   2 -14 0.63100 5.19041   3
  10   2 -14 7.18985 3.72727   2
   9  -2 -14 17.1909 3.43114   2
   9  -2 -14 4.75685 6.52980   1
   9  -2 -14 13.2663 5.42169   3
  -9  -2  14 18.6753 10.2746   1
   9   2 -14 14.3551 3.90356   2
   9   2 -14 5.90432 8.30646   1
   9   2 -14 21.6356 5.66047   3
   8  -2 -14 -6.4813 7.98820   1
  -8  -2  14 8.53819 8.80158   1
   8  -2 -14 2.13583 4.92791   3
   8  -2 -14 2.03208 3.03818   2
   8   2 -14 1.08019 4.52187   3
   8   2 -14 -6.4620 7.47609   1
   8   2 -14 -1.7500 3.10081   2
   7  -2 -14 86.6203 6.79824   2
   7  -2 -14 88.7140 9.24671   3
  -7  -2  14 94.4738 14.4185   1
   7   2 -14 84.6478 13.3531   1
   7   2 -14 76.3827 7.17725   2
   7   2 -14 74.6790 8.38670   3
   6  -2 -14 18.7498 3.80346   2
  -6  -2  14 9.05681 9.56412   1
   6  -2 -14 21.5071 5.93006   3
   6  -2 -14 21.2005 8.90084   1
   6   2 -14 13.4922 3.85584   2
   6   2 -14 11.8680 8.60770   1
   6   2 -14 17.2731 4.69589   3
  -5  -2  14 68.4794 12.8539   1
   5  -2 -14 31.8317 8.69648   1
   5  -2 -14 55.1457 6.11639   2
   5  -2 -14 58.2806 7.64102   3
   5   2 -14 51.8920 5.64442   2
   5   2 -14 34.4859 10.3976   1
   5   2 -14 42.3767 5.13234   3
  -4  -2  14 27.8019 10.6757   1
   4  -2 -14 7.52225 6.91026   1
   4  -2 -14 23.0389 5.95403   3
   4  -2 -14 22.5006 4.13797   2
   4   2 -14 12.5726 3.66612   2
   4   2 -14 19.4538 8.39256   1
   4   2 -14 17.1516 3.96172   3
   3  -2 -14 3.41150 5.84447   1
   3  -2 -14 6.71894 3.62292   2
  -3  -2  14 -3.5418 7.00086   1
   3  -2 -14 6.20018 4.97931   3
   3   2 -14 2.26051 3.31714   3
   3   2 -14 5.55435 7.31550   1
   3   2 -14 4.97663 3.35185   2
   2  -2 -14 7.84096 3.96898   2
   2  -2 -14 -5.5931 5.32319   1
  -2  -2  14 -1.8507 7.66970   1
   2  -2 -14 1.72839 4.66472   3
   2   2 -14 -0.6534 3.08860   3
   2   2 -14 0.78585 3.32283   2
   2   2 -14 -2.8444 7.89599   1
   1  -2 -14 7.23867 3.86952   2
   1  -2 -14 2.27909 6.18763   1
   1  -2 -14 1.13541 6.54468   1
  -1  -2  14 12.8734 8.96027   1
   1   2 -14 23.9896 15.0802   1
   1   2 -14 12.0958 3.48780   3
   1   2 -14 7.47744 4.14875   2
   0  -2  14 169.774 18.6829   1
   0  -2 -14 178.807 15.8170   1
   0  -2 -14 166.836 9.95331   2
   0  -2 -14 162.132 15.5402   1
   0   2 -14 146.089 13.8090   2
   0   2 -14 187.690 12.5710   3
   0   2 -14 155.816 26.4459   1
  -1  -2 -14 12.5839 6.77066   1
   1  -2  14 -1.6515 8.42994   1
  -1  -2 -14 5.32220 7.23894   1
  -1  -2 -14 -0.0051 3.83578   2
  -1   2 -14 6.81508 8.68076   1
  -1   2 -14 7.75380 3.08268   3
  -2  -2 -14 7.79419 6.46850   1
  -2  -2 -14 9.98558 7.16851   1
  -2  -2 -14 1.55414 5.89949   2
  -2   2 -14 4.34567 3.53501   2
  -2   2 -14 -4.4565 7.12392   1
  -3  -2 -14 4.94092 8.56919   1
  -3  -2 -14 -8.8772 5.95597   1
  -3  -2 -14 -2.1307 3.90551   2
  -3   2 -14 2.34074 2.51508   3
  -3   2 -14 -6.4353 6.95609   1
  -3   2 -14 10.2458 4.28392   2
  -3   2 -14 -3.9180 7.28563   1
  -3   2 -14 1.70804 2.66098   3
  -4  -2 -14 2.31140 3.98724   2
  -4  -2 -14 14.8860 7.55658   1
  -4   2 -14 0.83084 7.71686   1
  -4   2 -14 4.16057 2.45582   3
  -4   2 -14 1.36533 3.48066   2
  -4   2 -14 6.58667 2.64933   3
  -4   2 -14 2.41392 7.58509   1
  -5  -2 -14 51.5386 12.9893   1
  -5  -2 -14 65.7999 11.4267   1
  -5  -2 -14 65.2696 6.29845   2
  -5   2 -14 72.5497 7.42614   2
  -5   2 -14 66.3667 4.63496   3
  -5   2 -14 75.8415 12.8819   1
  -5   2 -14 52.9424 11.7571   1
  -5   2 -14 57.2043 4.67700   3
  -6  -2 -14 19.5374 4.81779   2
  -6  -2 -14 18.5628 8.77967   1
  -6  -2 -14 19.0550 8.90809   1
  -6   2 -14 19.5806 2.81373   3
  -6   2 -14 10.8414 9.83620   1
  -6   2 -14 23.3832 2.78737   3
  -6   2 -14 15.8414 9.18703   1
  -6   2 -14 23.4290 4.90808   2
  -7  -2 -14 62.4735 11.9796   1
  -7  -2 -14 79.3470 8.33488   2
  -7  -2 -14 62.6527 12.2084   1
  -7   2 -14 85.9195 7.97436   2
  -7   2 -14 85.3518 14.3162   1
  -7   2 -14 81.1776 4.61285   3
  -7   2 -14 74.4797 4.60118   3
  -7   2 -14 87.4136 14.3630   1
  -8  -2 -14 16.2237 4.88385   2
  -8  -2 -14 7.26185 9.03211   1
  -8  -2 -14 28.1167 11.0270   1
  -8   2 -14 23.1771 5.00305   2
  -8   2 -14 6.80485 8.90221   1
  -8   2 -14 18.2270 2.32797   3
  -8   2 -14 16.4128 10.8424   1
  -8   2 -14 15.7441 2.28652   3
  -9  -2 -14 -9.2903 9.78889   1
  -9  -2 -14 5.23054 4.34493   2
  -9   2 -14 9.84799 1.79909   3
  -9   2 -14 9.31700 10.2287   1
  -9   2 -14 7.97297 10.3886   1
  -9   2 -14 8.24688 4.17949   2
 -10  -2 -14 13.1327 9.63348   1
 -10  -2 -14 -5.6039 4.45299   2
 -10   2 -14 13.9095 12.1313   1
 -10   2 -14 16.0054 15.4755   1
 -10   2 -14 4.48417 3.74698   2
 -11  -2 -14 59.9168 13.4898   1
 -11  -2 -14 74.5404 8.39210   2
 -11   2 -14 50.4264 14.4239   1
 -11   2 -14 53.8213 23.6356   1
 -11   2 -14 63.1845 7.46425   2
 -12  -2 -14 23.4022 5.64126   2
 -12   2 -14 8.31615 18.3432   1
 -12   2 -14 18.7536 4.92328   2
 -13  -2 -14 143.276 13.4779   2
 -13   2 -14 126.016 9.51282   2
  16  -3 -14 2.71600 6.62173   3
  16   3 -14 -7.9056 5.49029   3
  16   3 -14 -2.3307 13.8589   1
  16   3 -14 3.98239 3.65092   2
  15  -3 -14 0.85510 6.55116   3
 -15  -3  14 2.68526 16.8380   1
  15   3 -14 1.69339 5.43492   3
  15   3 -14 -1.4723 3.06767   2
  15   3 -14 3.39344 11.1971   1
  14  -3 -14 1.27085 9.31068   1
  14  -3 -14 -2.0542 2.32260   2
  14  -3 -14 -2.2092 5.98142   3
  14   3 -14 5.00554 5.46419   3
  14   3 -14 0.93048 3.28651   2
  13  -3 -14 30.7033 3.75512   2
  13  -3 -14 36.9037 7.30426   3
  13  -3 -14 35.4576 9.23959   1
 -13  -3  14 54.4654 15.9702   1
  13   3 -14 38.3906 7.05746   3
  13   3 -14 33.2640 5.33328   2
  13   3 -14 43.2443 12.6604   1
  12  -3 -14 24.2600 3.64098   2
 -12  -3  14 -5.3207 14.3700   1
  12  -3 -14 37.1818 7.48332   3
  12  -3 -14 9.09870 7.34020   1
  12   3 -14 24.2612 4.88123   2
  12   3 -14 32.2877 7.06145   3
  12   3 -14 23.2612 10.6805   1
  11  -3 -14 -5.3900 2.74207   2
  11  -3 -14 -3.6056 5.78705   3
 -11  -3  14 -5.7956 10.9651   1
  11  -3 -14 -3.4380 5.83307   1
  11   3 -14 3.94346 3.98509   2
  11   3 -14 -7.0833 9.65499   1
  11   3 -14 -8.0193 4.79877   3
  10  -3 -14 1.11740 5.64610   1
  10  -3 -14 -3.3633 2.82508   2
 -10  -3  14 4.47243 11.8821   1
  10  -3 -14 2.74400 6.45784   3
  10   3 -14 -2.2189 3.44489   2
  10   3 -14 -2.2320 4.36317   3
  10   3 -14 -9.0705 8.10075   1
  -9  -3  14 3.69300 12.0870   1
   9  -3 -14 -3.7305 5.69843   1
   9  -3 -14 -19.834 11.7585   3
   9  -3 -14 6.81115 3.31282   2
   9   3 -14 4.32311 4.67922   3
   9   3 -14 4.05356 3.68655   2
   9   3 -14 5.27271 8.82114   1
   8  -3 -14 55.4636 8.49877   3
   8  -3 -14 57.9513 6.18650   2
   8  -3 -14 35.0783 8.23709   1
  -8  -3  14 67.6115 15.3043   1
   8   3 -14 41.8811 12.1840   1
   8   3 -14 44.4602 6.23038   3
   8   3 -14 42.1016 6.00996   2
   7  -3 -14 2.78823 5.25365   3
   7  -3 -14 -8.1603 5.23262   1
  -7  -3  14 9.70271 10.8763   1
   7  -3 -14 1.70885 3.40350   2
   7   3 -14 3.72567 3.87945   2
   7   3 -14 -0.6963 3.95121   3
   7   3 -14 12.3978 9.80624   1
  -6  -3  14 10.7600 11.2576   1
   6  -3 -14 3.78951 3.48816   2
   6  -3 -14 5.95712 5.94393   1
   6  -3 -14 12.5472 5.80440   3
   6   3 -14 6.62312 4.02584   2
   6   3 -14 -11.028 7.62377   1
   6   3 -14 9.53795 4.30628   3
   5  -3 -14 29.7829 6.37714   3
   5  -3 -14 31.0199 7.56373   1
  -5  -3  14 34.4343 11.3564   1
   5  -3 -14 31.1423 4.35915   2
   5   3 -14 42.6552 5.73187   2
   5   3 -14 35.7012 4.89190   3
   5   3 -14 9.33110 10.0058   1
   4  -3 -14 11.6936 4.13552   2
   4  -3 -14 13.1276 6.72931   1
   4  -3 -14 16.7939 6.80184   1
   4  -3 -14 22.7941 6.62796   3
  -4  -3  14 30.3634 12.4045   1
   4   3 -14 22.1493 9.58716   1
   4   3 -14 19.2782 4.08895   3
   4   3 -14 28.6398 5.14201   2
  -3  -3  14 -0.3146 8.92705   1
   3  -3 -14 6.83392 6.26857   1
   3  -3 -14 7.16017 5.83840   3
   3  -3 -14 1.94652 5.77818   1
   3   3 -14 7.88613 3.43883   3
   3   3 -14 23.2324 10.1969   1
   3   3 -14 -0.6348 3.88410   2
   2  -3 -14 8.36607 5.99354   1
  -2  -3  14 8.47994 10.0878   1
   2  -3 -14 -4.7641 5.23878   1
   2  -3 -14 0.66763 4.25401   2
   2   3 -14 -2.1092 3.89426   2
   2   3 -14 0.61470 2.99242   3
   2   3 -14 3.37167 8.05446   1
   1  -3 -14 -6.2217 5.43679   1
   1  -3 -14 2.17984 3.73037   2
  -1  -3  14 7.60988 9.50144   1
   1  -3 -14 12.2094 6.52001   1
   1   3 -14 3.92513 3.11119   3
   1   3 -14 15.1894 9.00567   1
   1   3 -14 -1.2297 4.09999   2
   0  -3 -14 -1.9591 5.88464   1
   0  -3  14 5.35381 9.12508   1
   0  -3 -14 7.64446 4.40571   2
   0  -3 -14 6.66626 6.76217   1
   0   3 -14 12.5428 8.47506   1
   0   3 -14 1.87693 3.78425   2
   0   3 -14 2.88486 3.41663   3
  -1  -3 -14 -0.9059 6.33380   1
  -1  -3 -14 1.39242 3.75104   2
   1  -3  14 -4.2285 9.11940   1
  -1   3 -14 4.34193 2.60408   3
  -1   3 -14 4.41275 3.75784   2
  -1   3 -14 -0.5019 8.73899   1
  -2  -3 -14 7.81082 4.40677   2
  -2  -3 -14 15.3809 7.66422   1
  -2   3 -14 12.4109 2.52544   3
  -2   3 -14 20.9648 4.84719   2
  -2   3 -14 1.61057 9.43644   1
  -2   3 -14 27.1407 10.0728   1
  -3  -3 -14 28.2091 5.30951   2
  -3  -3 -14 13.9103 9.20746   1
  -3   3 -14 17.0214 9.71357   1
  -3   3 -14 26.7918 4.65378   2
  -3   3 -14 24.3324 2.56676   3
  -3   3 -14 21.9542 9.98670   1
  -3   3 -14 28.9582 3.33115   3
  -4  -3 -14 2.86147 4.44121   2
  -4  -3 -14 29.2937 9.91384   1
  -4   3 -14 7.90876 1.73413   3
  -4   3 -14 7.50149 3.92539   2
  -4   3 -14 17.9908 11.5591   1
  -4   3 -14 0.18154 8.97784   1
  -4   3 -14 8.27936 1.62986   3
  -5  -3 -14 -2.2959 4.37866   2
  -5  -3 -14 13.5409 7.42783   1
  -5   3 -14 6.26754 4.42969   2
  -5   3 -14 1.60993 8.62677   1
  -6  -3 -14 5.26065 4.28897   2
  -6  -3 -14 -10.688 6.89305   1
  -6   3 -14 -5.8468 9.78356   1
  -6   3 -14 -2.8794 7.95821   1
  -6   3 -14 -3.4518 3.80258   2
  -7  -3 -14 13.5013 4.65538   2
  -7  -3 -14 4.09984 8.34846   1
  -7   3 -14 -11.333 9.53357   1
  -7   3 -14 8.30658 4.16814   2
  -7   3 -14 24.6225 12.4679   1
  -8  -3 -14 15.6334 9.64369   1
  -8  -3 -14 31.3087 5.96268   2
  -8   3 -14 24.5278 4.70041   2
  -8   3 -14 15.7764 12.5926   1
  -9  -3 -14 -0.5729 4.00088   2
  -9  -3 -14 -1.8157 9.89207   1
  -9   3 -14 -4.2006 3.68212   2
  -9   3 -14 -11.315 12.8884   1
 -10  -3 -14 12.2099 5.49622   2
 -10   3 -14 9.03370 4.43121   2
 -10   3 -14 29.9808 27.3609   1
 -11  -3 -14 18.7929 7.40088   2
 -11   3 -14 15.7364 4.08530   2
  13  -4 -14 -2.4399 2.56748   2
 -13  -4  14 39.0060 23.0585   1
  13  -4 -14 2.82148 5.68514   3
  13   4 -14 4.96764 4.27027   2
  13   4 -14 -7.6711 4.27284   3
  12  -4 -14 4.69220 3.00497   2
 -12  -4  14 -4.7777 15.8284   1
  12  -4 -14 2.78469 5.74067   3
  12   4 -14 3.70349 4.00327   2
  12   4 -14 11.8079 4.97336   3
 -11  -4  14 -1.6041 17.1179   1
  11  -4 -14 15.6207 9.59127   1
  11  -4 -14 1.71087 3.25317   2
  11  -4 -14 0.97660 5.53048   3
  11   4 -14 -0.0754 3.42762   2
  11   4 -14 14.4045 6.27624   3
  10  -4 -14 4.82834 5.94722   1
  10  -4 -14 18.6338 4.84112   2
  10  -4 -14 11.1539 6.23061   3
 -10  -4  14 -1.8459 16.1503   1
  10   4 -14 12.6162 4.45145   3
  10   4 -14 22.9573 5.47276   2
   9  -4 -14 15.4159 6.44612   3
   9  -4 -14 -5.6175 5.27704   1
   9  -4 -14 7.54745 4.53135   2
   9   4 -14 1.24447 3.98899   3
   9   4 -14 3.13297 3.74718   2
   8  -4 -14 23.0470 4.35262   2
   8  -4 -14 25.2289 6.43417   1
   8  -4 -14 28.2890 7.43995   3
   8   4 -14 20.4039 5.15357   2
   8   4 -14 27.9788 4.78705   3
   7  -4 -14 0.52105 3.61550   2
   7  -4 -14 -1.9629 5.05913   1
   7  -4 -14 12.1616 6.83717   3
  -7  -4  14 17.2955 18.8754   1
   7   4 -14 -4.2358 3.32091   3
   7   4 -14 -1.7062 4.17866   2
  -6  -4  14 -11.953 13.3193   1
   6  -4 -14 9.96324 3.77160   2
   6  -4 -14 4.21236 6.17718   3
   6  -4 -14 10.4287 5.84380   1
   6   4 -14 5.32918 4.35875   2
   6   4 -14 6.06375 3.50633   3
   6   4 -14 -28.684 14.3109   1
   5  -4 -14 1.17690 5.25631   1
   5  -4 -14 -5.9055 5.54528   3
   5  -4 -14 5.08157 3.72500   2
  -5  -4  14 -2.8015 13.9373   1
   5   4 -14 4.41431 9.95833   1
   5   4 -14 1.85824 4.00156   2
   5   4 -14 4.73012 3.14672   3
   4  -4 -14 3.67441 6.65623   3
   4  -4 -14 -3.8608 3.63069   2
  -4  -4  14 -0.0334 11.7517   1
   4  -4 -14 0.11224 5.84465   1
   4   4 -14 -6.2050 3.77640   2
   4   4 -14 11.4325 11.4616   1
   4   4 -14 -1.9975 2.72024   3
  -3  -4  14 41.5202 15.6131   1
   3  -4 -14 26.8672 5.34207   2
   3  -4 -14 32.6327 7.75166   1
   3   4 -14 35.3231 16.0875   1
   3   4 -14 17.9057 5.10124   2
   3   4 -14 23.0572 3.45885   3
   2  -4 -14 118.013 9.39543   2
   2  -4 -14 103.125 12.5076   1
   2   4 -14 61.9412 21.0567   1
   2   4 -14 111.600 9.87085   2
  -1  -4  14 -7.2771 17.4547   1
   1  -4 -14 1.76020 4.52404   2
   1  -4 -14 8.12026 11.3826   1
   1   4 -14 4.65741 5.00876   2
   1   4 -14 1.82252 2.15935   3
   0  -4 -14 103.764 9.18968   2
   0  -4  14 98.7437 19.7225   1
   0   4 -14 78.3360 9.11055   2
   0   4 -14 72.5579 4.43074   3
  -1  -4 -14 39.4945 6.01424   2
   1  -4  14 24.9914 13.1553   1
  -1  -4 -14 41.2673 8.82036   1
  -1   4 -14 46.8166 6.45493   2
  -1   4 -14 26.2203 10.8648   1
  -2  -4 -14 39.4692 6.37834   2
   2  -4  14 20.1808 12.4113   1
  -2  -4 -14 27.3174 8.73128   1
  -2   4 -14 26.4277 5.52850   2
  -2   4 -14 19.0877 10.9903   1
  -3  -4 -14 17.3437 8.26910   1
  -3  -4 -14 18.6414 5.79483   2
  -3   4 -14 13.1828 5.52397   2
  -3   4 -14 28.4121 11.2984   1
  -4  -4 -14 11.4031 8.51945   1
  -4  -4 -14 16.4094 5.94471   2
  -4   4 -14 9.35071 11.7677   1
  -4   4 -14 11.7836 4.90286   2
  -5  -4 -14 71.0874 7.53917   2
  -5  -4 -14 56.2133 13.6033   1
  -5   4 -14 57.1321 6.48175   2
  -5   4 -14 49.7238 15.7160   1
  -6  -4 -14 20.3907 7.94109   2
  -6   4 -14 31.7695 5.91854   2
  -7  -4 -14 -6.0041 5.46192   2
  -7   4 -14 1.47713 5.11255   2
  -8  -4 -14 17.1431 5.91370   2
   4   5 -14 0.05847 4.83648   2
   3  -5 -14 -1.2366 4.10694   2
   3   5 -14 3.35256 4.96684   2
   2  -5 -14 4.74899 5.10511   2
   2   5 -14 7.54905 4.74123   2
   1  -5 -14 1.04637 6.28329   2
   1   5 -14 0.03406 4.41473   2
  18   0 -15 2.88520 7.05561   3
 -17   0  15 19.9037 25.6241   1
  17   0 -15 -2.2525 5.77306   3
  16   0 -15 0.05014 2.09045   2
  16   0 -15 4.51157 7.03157   3
  16   0 -15 18.0617 9.33278   1
 -16   0  15 3.74168 11.6115   1
  15   0 -15 -4.2827 2.21841   2
  15   0 -15 4.07361 8.03383   1
 -15   0  15 2.29691 2.43118   2
  15   0 -15 3.90929 5.53759   3
 -15   0  15 9.58235 10.5086   1
  14   0 -15 0.14216 5.79233   3
  14   0 -15 -7.9299 7.17146   1
  14   0 -15 2.03566 2.49628   2
 -14   0  15 2.26464 2.40106   2
 -14   0  15 6.02774 9.62335   1
  13   0 -15 -3.0364 2.59020   2
  13   0 -15 2.55142 7.78211   1
  13   0 -15 0.33228 10.0466   3
 -13   0  15 15.0230 8.90027   1
  12   0 -15 -4.6978 4.93345   3
  12   0 -15 -12.592 7.42269   1
 -12   0  15 4.57579 7.69059   1
  12   0 -15 -1.4453 2.84745   2
  11   0 -15 0.25826 5.71941   3
 -11   0  15 -8.6558 5.98184   1
  11   0 -15 -0.2617 2.93287   2
  10   0 -15 0.31179 2.85839   2
  10   0 -15 -7.2045 4.84547   3
 -10   0  15 -14.784 7.37954   1
   9   0 -15 1.15737 5.31382   3
   9   0 -15 1.62439 3.07471   2
   9   0 -15 11.9006 12.8222   1
   8   0 -15 0.16733 3.09037   2
   8   0 -15 -4.1202 4.69701   3
   8   0 -15 -9.0556 11.1022   1
   7   0 -15 -4.2232 4.28040   3
   7   0 -15 -2.2518 2.93028   2
   6   0 -15 -4.2601 4.90029   3
  -6   0  15 1.35695 8.15266   1
   6   0 -15 22.5734 14.2557   1
   5   0 -15 3.50318 6.39600   1
   5   0 -15 3.59212 3.02506   2
   5   0 -15 2.66344 4.21400   3
  -5   0  15 -2.9023 7.53122   1
   4   0 -15 -5.9365 4.17633   3
   4   0 -15 -0.2145 3.45772   2
   4   0 -15 0.93742 7.37893   1
  -4   0  15 -2.6728 6.74703   1
   3   0 -15 -14.735 6.29507   1
   3   0 -15 0.28257 4.11644   3
   3   0 -15 1.73486 3.80110   2
   2   0 -15 0.39720 7.43725   1
   2   0 -15 3.91149 3.99523   3
   2   0 -15 -1.3233 3.87401   2
   1   0 -15 13.5167 7.73378   1
   1   0 -15 -0.1267 3.60269   2
   1   0 -15 7.42760 4.29687   3
   0   0 -15 5.58433 7.42382   1
   0   0 -15 0.72706 3.63629   3
   0   0 -15 -4.7611 3.20027   2
  -1   0 -15 -4.2312 3.57935   3
  -1   0 -15 -4.5515 6.14472   1
  -2   0 -15 -2.1249 7.35587   1
  -2   0 -15 0.29167 3.69475   2
  -2   0 -15 16.9615 8.84709   1
  -2   0 -15 -2.5459 3.70707   3
  -3   0 -15 -4.0196 7.67351   1
  -3   0 -15 3.61680 7.14746   1
  -3   0 -15 0.30767 3.48913   3
  -3   0 -15 -5.8859 3.64965   2
  -4   0 -15 -9.0357 7.52337   1
  -4   0 -15 -0.6495 3.57267   2
  -4   0 -15 -2.3709 3.93952   3
  -4   0 -15 -9.3335 6.79864   1
  -5   0 -15 12.3755 8.74484   1
  -5   0 -15 -3.4005 3.51374   2
  -5   0 -15 5.15248 7.57403   1
  -5   0 -15 -0.3715 4.04842   3
  -6   0 -15 -2.5541 8.00800   1
  -6   0 -15 0.64262 3.68263   3
  -6   0 -15 -10.969 7.11257   1
  -6   0 -15 0.94919 3.63622   2
  -7   0 -15 0.71119 3.74146   2
  -7   0 -15 13.2372 9.83046   1
  -7   0 -15 -9.4369 8.42783   1
  -8   0 -15 -0.8423 3.87008   2
  -8   0 -15 14.6813 10.0118   1
  -8   0 -15 -10.557 8.14875   1
  -9   0 -15 11.9510 10.1883   1
  -9   0 -15 -2.0320 17.0181   1
  -9   0 -15 1.83643 4.31491   2
 -10   0 -15 20.7178 10.8078   1
 -10   0 -15 -11.608 11.4425   1
 -10   0 -15 2.19134 4.27084   2
 -11   0 -15 -2.3044 19.0996   1
 -11   0 -15 6.98244 11.8215   1
 -11   0 -15 2.43403 3.99962   2
 -12   0 -15 12.4604 12.4204   1
 -12   0 -15 6.84196 12.8599   1
 -12   0 -15 5.65974 4.78478   2
 -13   0 -15 -3.5736 11.9884   1
 -13   0 -15 -2.3588 3.78540   2
 -13   0 -15 -25.713 15.5123   1
  18  -1 -15 -2.9312 6.06196   3
  18   1 -15 0.33825 2.17594   2
  18   1 -15 -5.7736 6.10082   3
  17  -1 -15 12.4340 6.70634   3
 -17   1  15 8.07467 16.4292   1
  17   1 -15 6.26644 6.86274   3
  17   1 -15 3.41733 2.49847   2
  17   1 -15 1.25122 11.6807   1
  16  -1 -15 5.00608 2.13455   2
  16  -1 -15 -2.3172 8.08957   1
 -16  -1  15 6.32878 20.8801   1
  16  -1 -15 12.8579 7.50182   3
  16   1 -15 8.62050 6.94860   3
  16   1 -15 3.51173 9.36652   1
 -16   1  15 3.60398 10.7983   1
  16   1 -15 4.50433 2.63980   2
  15  -1 -15 5.85858 6.10249   3
  15  -1 -15 -1.7563 7.98212   1
 -15  -1  15 -2.4049 16.5154   1
  15  -1 -15 6.13198 2.36347   2
 -15   1  15 -16.839 8.60660   1
  15   1 -15 7.28357 9.20593   1
  15   1 -15 -1.2251 5.64539   3
  15   1 -15 4.91135 2.82179   2
  14  -1 -15 -1.4448 5.55632   3
  14  -1 -15 -1.1699 7.29167   1
  14  -1 -15 1.73164 2.55413   2
  14   1 -15 1.91199 6.05911   3
 -14   1  15 -2.4269 8.26523   1
  14   1 -15 5.10332 3.00706   2
  14   1 -15 -2.3258 8.89149   1
 -13  -1  15 14.3821 21.4271   1
  13  -1 -15 17.5574 3.26112   2
  13  -1 -15 15.1946 6.81882   3
  13  -1 -15 7.54104 7.88137   1
  13   1 -15 11.7851 3.55224   2
  13   1 -15 8.77584 8.64124   1
  13   1 -15 35.0085 11.3110   3
 -13   1  15 3.05327 8.27965   1
  12  -1 -15 19.5623 3.46604   2
  12  -1 -15 25.9346 8.82643   1
  12  -1 -15 35.2471 11.0255   3
 -12  -1  15 29.3036 20.4704   1
  12   1 -15 26.0140 5.89194   3
 -12   1  15 16.3455 9.29111   1
  12   1 -15 23.2020 10.1645   1
  12   1 -15 30.1361 4.24539   2
  11  -1 -15 -1.2967 2.93906   2
 -11  -1  15 -3.3043 11.7829   1
  11  -1 -15 7.08198 5.79680   3
  11  -1 -15 8.07118 7.24179   1
  11   1 -15 10.9021 9.64561   1
 -11   1  15 -3.0594 6.85498   1
  11   1 -15 -0.3427 5.48454   3
  11   1 -15 3.79239 3.19428   2
  10  -1 -15 9.74453 7.50748   1
  10  -1 -15 11.6444 3.41202   2
 -10  -1  15 13.9800 10.4183   1
  10  -1 -15 16.2605 5.83204   3
 -10   1  15 23.3613 7.84950   1
  10   1 -15 16.0700 3.79400   2
  10   1 -15 13.3678 9.52080   1
  10   1 -15 8.06547 4.95411   3
   9  -1 -15 8.90924 7.47158   1
   9  -1 -15 10.5267 5.81886   3
   9  -1 -15 15.1567 3.63444   2
  -9  -1  15 5.25851 9.68315   1
   9   1 -15 12.1704 3.67021   2
  -9   1  15 19.6184 7.68786   1
   9   1 -15 24.3694 10.2237   1
   9   1 -15 17.7336 5.47521   3
   8  -1 -15 3.67765 5.49919   3
  -8  -1  15 1.37832 8.70520   1
   8  -1 -15 3.42555 3.43100   2
   8  -1 -15 6.50999 5.99415   1
  -8   1  15 -1.0388 6.20028   1
   8   1 -15 9.12162 5.07963   3
   8   1 -15 6.02867 3.37264   2
   8   1 -15 -5.2171 7.40397   1
  -7  -1  15 41.8087 12.0610   1
   7  -1 -15 52.3540 6.71842   3
   7  -1 -15 56.1211 10.3889   1
   7  -1 -15 77.2819 6.70093   2
   7   1 -15 68.8654 8.12089   3
   7   1 -15 64.6101 6.71973   2
   7   1 -15 50.8960 11.3540   1
   6  -1 -15 6.23414 4.85704   3
   6  -1 -15 4.96082 3.55123   2
   6  -1 -15 11.5531 6.84767   1
  -6  -1  15 -16.844 6.45974   1
   6   1 -15 2.14849 7.42308   1
   6   1 -15 0.39474 4.85592   3
   6   1 -15 11.1223 3.94456   2
  -5  -1  15 133.568 17.1730   1
   5  -1 -15 138.658 8.82842   2
   5  -1 -15 158.206 10.6847   3
   5  -1 -15 143.674 15.7830   1
   5   1 -15 135.586 15.8593   1
   5   1 -15 148.566 9.03198   2
   5   1 -15 135.459 9.81291   3
   4  -1 -15 98.9517 13.9225   1
  -4  -1  15 116.747 15.4097   1
   4  -1 -15 119.763 9.55507   3
   4  -1 -15 109.289 8.01199   2
   4   1 -15 117.892 15.5466   1
   4   1 -15 111.109 8.27857   2
   4   1 -15 94.4790 8.58815   3
   3  -1 -15 27.5498 5.31221   3
   3  -1 -15 16.7580 8.15786   1
  -3  -1  15 38.1516 10.6155   1
   3  -1 -15 34.5761 5.05068   2
   3   1 -15 22.8387 9.39948   1
   3   1 -15 35.8563 4.56984   2
   3   1 -15 46.3813 5.79140   3
  -2  -1  15 -9.7366 7.62063   1
   2  -1 -15 -5.9850 3.44909   2
   2  -1 -15 4.69474 6.69103   1
   2  -1 -15 3.64880 5.07757   3
   2   1 -15 -4.1836 6.87391   1
   2   1 -15 -2.2118 3.67179   2
   2   1 -15 0.95091 3.60265   3
   1  -1 -15 45.6489 5.14120   2
   1  -1 -15 52.3539 6.27240   3
   1  -1 -15 56.5985 10.4048   1
  -1  -1  15 69.0836 12.5077   1
   1   1 -15 55.3725 6.63169   3
   1   1 -15 64.7926 12.6436   1
   0  -1 -15 -4.6011 6.61466   1
   0  -1 -15 -5.8276 7.55545   1
   0  -1 -15 0.32548 5.91153   2
   0  -1 -15 7.26377 5.12591   3
   0   1 -15 -1.3791 4.42461   2
   0   1 -15 8.21056 7.76784   1
   0   1 -15 0.93721 3.69591   3
  -1  -1 -15 80.8006 12.8880   1
  -1  -1 -15 83.1596 8.32660   2
  -1  -1 -15 76.2359 8.18606   3
  -1  -1 -15 78.3874 12.4146   1
  -1   1 -15 82.6948 6.94811   3
  -1   1 -15 82.8733 14.1419   1
  -1   1 -15 82.5159 7.63440   2
  -2  -1 -15 24.1768 9.39209   1
  -2  -1 -15 13.3496 5.17569   3
  -2  -1 -15 13.0106 4.34428   2
  -2  -1 -15 -4.6742 7.54101   1
  -2   1 -15 3.26515 3.56218   2
  -2   1 -15 8.79932 3.59061   3
  -2   1 -15 11.1278 8.63628   1
  -2   1 -15 24.1867 10.1158   1
  -3  -1 -15 7.36854 8.01972   1
  -3  -1 -15 -0.1359 7.70055   1
  -3  -1 -15 -1.2314 3.56012   2
  -3   1 -15 -1.1839 3.08181   3
  -3   1 -15 -2.9456 8.34676   1
  -3   1 -15 1.48117 7.05293   1
  -3   1 -15 3.92379 3.93482   2
  -4  -1 -15 5.13884 4.07888   2
  -4  -1 -15 -10.256 9.93572   1
  -4  -1 -15 0.10374 7.66186   1
  -4   1 -15 1.25337 3.20655   3
  -4   1 -15 -2.5413 9.10794   1
  -4   1 -15 -4.0712 3.59994   2
  -4   1 -15 -4.1588 8.55072   1
  -5  -1 -15 74.6869 8.11510   2
  -5  -1 -15 68.7626 12.6187   1
  -5  -1 -15 87.2615 13.9265   1
  -5   1 -15 78.2044 14.1841   1
  -5   1 -15 77.6913 6.48764   3
  -5   1 -15 83.3133 7.93115   2
  -6  -1 -15 399.137 26.7666   1
  -6  -1 -15 409.283 18.1164   2
  -6   1 -15 377.201 28.4741   1
  -6   1 -15 408.382 16.7200   3
  -6   1 -15 407.605 17.9904   2
  -6   1 -15 369.532 26.9815   1
  -7  -1 -15 -13.089 9.38312   1
  -7  -1 -15 -1.3137 4.12914   2
  -7  -1 -15 -1.4912 8.31465   1
  -7   1 -15 -0.3878 3.49057   2
  -7   1 -15 8.39905 10.1961   1
  -7   1 -15 6.64670 3.07073   3
  -7   1 -15 2.34260 9.84027   1
  -8  -1 -15 9.02143 9.30981   1
  -8  -1 -15 -1.2674 7.48256   1
  -8  -1 -15 -1.1366 3.72535   2
  -8   1 -15 1.20468 2.92516   3
  -8   1 -15 11.2433 9.07400   1
  -8   1 -15 -1.7829 3.41999   2
  -8   1 -15 28.6100 11.3693   1
  -9  -1 -15 101.565 15.9491   1
  -9  -1 -15 126.463 9.51625   2
  -9  -1 -15 114.913 18.1744   1
  -9   1 -15 148.206 20.1916   1
  -9   1 -15 134.955 9.41906   2
  -9   1 -15 132.115 7.43173   3
  -9   1 -15 113.648 17.4491   1
 -10  -1 -15 28.0342 11.7841   1
 -10  -1 -15 28.1456 5.38501   2
 -10   1 -15 16.2929 11.5349   1
 -10   1 -15 22.8775 3.73918   3
 -10   1 -15 19.5873 4.99712   2
 -10   1 -15 -26.824 11.4810   1
 -11  -1 -15 187.158 11.6631   2
 -11  -1 -15 197.879 23.5465   1
 -11   1 -15 186.595 11.3372   2
 -11   1 -15 183.719 9.33943   3
 -11   1 -15 187.259 23.3192   1
 -11   1 -15 227.648 23.4509   1
 -12  -1 -15 73.1226 7.34528   2
 -12   1 -15 68.0157 5.61244   3
 -12   1 -15 53.2418 16.2229   1
 -12   1 -15 46.2068 5.79426   2
 -12   1 -15 73.5788 18.4855   1
 -13   1 -15 145.473 25.3590   1
 -13   1 -15 126.537 7.27378   3
 -13   1 -15 128.464 22.0330   1
 -13   1 -15 138.960 10.4156   2
  17  -2 -15 11.8891 7.10676   3
  17   2 -15 8.23660 6.90947   3
  17   2 -15 14.6105 3.28907   2
  16  -2 -15 6.49865 7.46246   3
  16   2 -15 6.15971 3.17123   2
  16   2 -15 7.67391 6.43979   3
  16   2 -15 16.2213 10.8478   1
 -16   2  15 10.3349 10.5653   1
  15  -2 -15 40.3058 8.86067   3
 -15  -2  15 -0.6665 16.2601   1
  15  -2 -15 -2.2598 14.4709   1
  15  -2 -15 29.7898 3.13879   2
  15   2 -15 18.4164 13.2347   1
  15   2 -15 17.4496 3.77885   2
  15   2 -15 25.4134 7.03074   3
 -14  -2  15 33.9272 15.4444   1
  14  -2 -15 19.1251 8.80338   1
  14  -2 -15 21.3176 3.14753   2
  14  -2 -15 33.4897 7.58156   3
  14   2 -15 12.2489 3.78673   2
  14   2 -15 15.8737 6.56063   3
  14   2 -15 9.64633 11.1623   1
  13  -2 -15 -8.3638 5.85103   3
  13  -2 -15 -15.061 7.08462   1
  13  -2 -15 1.90275 2.79570   2
 -13  -2  15 -3.5265 11.5356   1
  13   2 -15 0.40716 9.75122   1
  13   2 -15 0.34827 5.99125   3
  13   2 -15 -2.8066 3.29081   2
 -12  -2  15 22.1325 12.4839   1
  12  -2 -15 4.07994 5.90556   3
  12  -2 -15 16.8890 3.34362   2
  12  -2 -15 -0.6211 6.97947   1
  12   2 -15 13.2707 6.78977   3
  12   2 -15 12.6571 9.60753   1
  12   2 -15 12.9032 3.95362   2
  11  -2 -15 -3.1331 6.54753   1
 -11  -2  15 22.2604 11.2209   1
  11  -2 -15 1.93845 5.65617   3
  11  -2 -15 -0.9045 2.98412   2
  11   2 -15 -1.3041 8.28095   1
  11   2 -15 3.76133 5.66645   3
  11   2 -15 3.15051 3.54314   2
  10  -2 -15 2.35486 3.02816   2
  10  -2 -15 -8.3660 6.24030   1
 -10  -2  15 2.58323 10.4201   1
  10   2 -15 -2.0369 5.10368   3
  10   2 -15 -6.7069 9.12181   1
  10   2 -15 -0.5294 3.48220   2
   9  -2 -15 0.87638 5.82919   3
   9  -2 -15 -0.6367 3.13297   2
   9  -2 -15 -12.025 6.19515   1
  -9  -2  15 11.8153 10.7377   1
   9   2 -15 1.46563 4.88649   3
   9   2 -15 -2.1653 9.02803   1
   9   2 -15 2.70531 3.76466   2
  -8  -2  15 7.35711 11.4168   1
   8  -2 -15 7.07649 7.89738   1
   8  -2 -15 5.72809 5.11371   3
   8  -2 -15 1.96084 3.20510   2
   8   2 -15 4.44270 8.44038   1
   8   2 -15 3.33291 3.73690   2
   8   2 -15 2.11774 4.55090   3
   7  -2 -15 -0.6826 4.99361   3
  -7  -2  15 -2.4604 10.3717   1
   7  -2 -15 6.09612 3.59902   2
   7   2 -15 4.86627 4.56770   3
   7   2 -15 7.32777 3.68524   2
   7   2 -15 7.40690 9.60713   1
   6  -2 -15 60.1168 11.8631   1
   6  -2 -15 76.4043 9.52609   3
  -6  -2  15 65.0175 13.8709   1
   6  -2 -15 78.5549 7.19134   2
   6   2 -15 95.2013 8.56561   3
   6   2 -15 80.5849 16.1321   1
   6   2 -15 83.9022 7.62382   2
   5  -2 -15 35.2468 9.18867   1
  -5  -2  15 58.8336 12.2991   1
   5  -2 -15 57.4108 6.70199   2
   5  -2 -15 70.9240 7.88732   3
   5   2 -15 46.2044 13.9067   1
   5   2 -15 67.4348 6.37388   2
   5   2 -15 47.7861 5.82613   3
   4  -2 -15 4.52263 4.02827   2
   4  -2 -15 13.9826 6.96750   1
   4  -2 -15 -1.1045 4.91845   3
  -4  -2  15 -9.2976 8.76532   1
   4   2 -15 6.42807 10.0741   1
   4   2 -15 0.49477 3.51166   2
   4   2 -15 1.59262 3.64480   3
  -3  -2  15 10.1738 9.45637   1
   3  -2 -15 3.98425 6.19202   1
   3  -2 -15 0.11998 5.30189   3
   3  -2 -15 3.89219 5.20900   2
   3   2 -15 -4.0630 7.24233   1
   3   2 -15 2.02030 3.53638   3
   3   2 -15 5.24154 3.64003   2
  -2  -2  15 12.3979 9.60012   1
   2  -2 -15 1.89857 5.33176   3
   2  -2 -15 -7.2424 5.71718   1
   2  -2 -15 4.41307 6.76356   1
   2   2 -15 0.98226 3.38413   3
   2   2 -15 -1.2860 7.32303   1
   2   2 -15 -1.2347 3.69249   2
  -1  -2  15 15.2570 8.71485   1
   1  -2 -15 -2.4413 3.38846   2
   1  -2 -15 -7.4201 5.99081   1
   1  -2 -15 0.63745 5.04688   3
   1  -2 -15 1.75713 6.92533   1
   1   2 -15 5.08696 3.37591   3
   1   2 -15 -3.0775 8.11383   1
   1   2 -15 -1.8489 3.81434   2
   0  -2 -15 -1.3209 4.11820   2
   0  -2 -15 5.00786 7.08739   1
   0  -2  15 4.34471 8.58787   1
   0  -2 -15 1.73730 6.67947   1
   0   2 -15 4.95749 8.13791   1
   0   2 -15 1.82687 4.05404   2
   0   2 -15 -3.5252 2.86161   3
  -1  -2 -15 14.1274 8.31575   1
  -1  -2 -15 7.64541 3.96543   2
  -1  -2 -15 31.0894 9.04384   1
  -1   2 -15 25.2855 9.90708   1
  -1   2 -15 12.3496 3.42877   3
  -1   2 -15 15.5613 4.12162   2
  -2  -2 -15 90.8620 8.30089   2
  -2  -2 -15 95.5047 13.3274   1
  -2  -2 -15 60.9956 11.0648   1
  -2   2 -15 59.9598 13.6332   1
  -2   2 -15 72.4135 7.91087   2
  -2   2 -15 76.8733 6.13354   3
  -3  -2 -15 122.158 16.1099   1
  -3  -2 -15 116.931 9.34791   2
  -3  -2 -15 132.430 15.7882   1
  -3   2 -15 153.573 19.0120   1
  -3   2 -15 125.507 6.83604   3
  -3   2 -15 114.094 8.89696   2
  -3   2 -15 78.8248 8.23266   3
  -4  -2 -15 63.7578 11.9705   1
  -4  -2 -15 92.8095 14.7791   1
  -4  -2 -15 90.2873 8.66159   2
  -4   2 -15 98.2490 15.7397   1
  -4   2 -15 81.4129 22.7189   1
  -4   2 -15 103.117 8.54818   2
  -5  -2 -15 2.94392 4.59754   2
  -5  -2 -15 13.8013 8.25332   1
  -5   2 -15 -0.4770 8.91143   1
  -5   2 -15 11.9818 3.36840   3
  -5   2 -15 7.83135 15.8665   1
  -5   2 -15 6.70224 3.11048   3
  -5   2 -15 3.71253 4.23370   2
  -6  -2 -15 20.4500 5.28573   2
  -6  -2 -15 5.51266 8.76453   1
  -6   2 -15 20.3328 2.83267   3
  -6   2 -15 21.3633 12.0359   1
  -6   2 -15 -1.4807 8.65027   1
  -6   2 -15 18.4004 4.49373   2
  -6   2 -15 14.7181 4.22734   3
  -7  -2 -15 20.1757 5.22656   2
  -7  -2 -15 14.3545 9.52152   1
  -7   2 -15 16.5619 2.59523   3
  -7   2 -15 6.36605 11.3579   1
  -7   2 -15 2.50532 10.0540   1
  -7   2 -15 4.69278 3.87879   2
  -8  -2 -15 4.22757 4.34479   2
  -8  -2 -15 7.72002 10.9522   1
  -8   2 -15 -0.5040 10.8019   1
  -8   2 -15 29.5536 17.9010   1
  -8   2 -15 1.37900 1.89182   3
  -8   2 -15 3.45982 3.81526   2
  -9  -2 -15 -0.4849 4.32445   2
  -9  -2 -15 -4.6348 9.31266   1
  -9   2 -15 -2.5510 3.69906   2
  -9   2 -15 10.8726 9.78206   1
  -9   2 -15 0.27095 1.53610   3
  -9   2 -15 -3.0836 10.8492   1
 -10  -2 -15 30.7912 5.93499   2
 -10   2 -15 30.8673 5.41399   2
 -10   2 -15 -0.6409 14.9438   1
 -10   2 -15 16.9129 13.5882   1
 -11  -2 -15 153.199 14.6568   2
 -11   2 -15 168.517 10.6582   2
 -11   2 -15 144.959 24.5411   1
 -12  -2 -15 2.03530 5.06517   2
 -12   2 -15 0.36400 5.83456   2
  15   3 -15 -0.2100 3.07953   2
  14  -3 -15 29.9272 8.17536   3
  14  -3 -15 23.3838 3.12964   2
 -14  -3  15 18.6465 22.6033   1
  14   3 -15 23.3757 13.7614   1
  14   3 -15 8.15232 3.50604   2
  14   3 -15 21.9405 6.42995   3
  13  -3 -15 0.01574 2.78212   2
 -13  -3  15 -1.2051 17.1768   1
  13  -3 -15 3.05293 6.78289   3
  13   3 -15 -5.4231 10.5918   1
  13   3 -15 5.15370 5.37045   3
  13   3 -15 2.77528 3.40315   2
  12  -3 -15 35.7137 7.76727   3
  12  -3 -15 26.4625 10.5395   1
 -12  -3  15 21.7083 15.5573   1
  12  -3 -15 37.8727 4.24743   2
  12   3 -15 29.5316 6.17310   3
  12   3 -15 18.9360 4.34311   2
 -11  -3  15 48.8319 17.3043   1
  11  -3 -15 28.3017 7.06570   3
  11  -3 -15 28.0051 4.12170   2
  11  -3 -15 23.6682 8.20631   1
  11   3 -15 8.43294 16.8393   1
  11   3 -15 19.5001 4.31840   2
 -10  -3  15 -6.5089 12.0693   1
  10  -3 -15 9.15821 7.01855   1
  10  -3 -15 -0.5264 5.54657   3
  10  -3 -15 1.78732 3.32167   2
  10   3 -15 5.32216 5.16651   3
  10   3 -15 2.96592 3.96152   2
  10   3 -15 -8.2212 10.8762   1
   9  -3 -15 61.4080 8.29322   3
   9  -3 -15 41.2618 9.73612   1
   9  -3 -15 80.4250 6.81003   2
  -9  -3  15 82.8274 16.1421   1
   9   3 -15 47.8960 6.28316   3
   9   3 -15 55.1566 13.8997   1
   9   3 -15 77.2680 7.94548   2
   8  -3 -15 2.86874 6.33361   3
   8  -3 -15 -4.7074 6.44793   1
  -8  -3  15 7.33086 13.3446   1
   8  -3 -15 4.26928 4.62602   2
   8   3 -15 2.84659 4.81341   3
   8   3 -15 6.94105 9.27298   1
   8   3 -15 -5.8731 3.65761   2
   7  -3 -15 7.91896 5.82867   3
  -7  -3  15 11.5976 11.7305   1
   7  -3 -15 8.57937 6.96675   1
   7  -3 -15 1.10325 6.00135   2
   7   3 -15 9.86255 4.58489   3
   7   3 -15 12.1432 4.52202   2
   7   3 -15 3.68557 10.2974   1
   6  -3 -15 3.10840 6.56711   1
  -6  -3  15 -6.3267 11.7729   1
   6  -3 -15 6.35741 5.61710   3
   6  -3 -15 5.34811 3.99829   2
   6   3 -15 8.14991 4.24597   3
   6   3 -15 5.65942 8.80327   1
   6   3 -15 13.4411 4.88197   2
  -5  -3  15 -23.914 9.32228   1
   5  -3 -15 -1.6842 6.39637   3
   5  -3 -15 11.8301 6.68897   1
   5  -3 -15 0.44111 3.93522   2
   5   3 -15 8.10589 4.02961   3
   5   3 -15 2.28594 4.07327   2
   5   3 -15 2.95825 9.98953   1
   4  -3 -15 116.300 8.32778   2
   4  -3 -15 109.181 12.2743   3
   4  -3 -15 77.5832 11.7633   1
  -4  -3  15 109.148 16.7433   1
   4   3 -15 90.8906 7.70832   3
   4   3 -15 95.2288 14.8455   1
   4   3 -15 89.6243 8.51285   2
   3  -3 -15 -1.9303 4.17832   2
   3  -3 -15 -13.037 5.84902   1
  -3  -3  15 -0.7271 11.2853   1
   3  -3 -15 6.02804 9.63411   3
   3   3 -15 -0.3315 9.31815   1
   3   3 -15 0.75405 3.45005   3
   3   3 -15 4.13770 4.13316   2
   2  -3 -15 118.808 14.0648   3
   2  -3 -15 110.773 8.68864   2
  -2  -3  15 122.979 17.3774   1
   2  -3 -15 96.6293 13.3035   1
   2   3 -15 97.6078 8.95708   2
   2   3 -15 88.9533 7.02076   3
   2   3 -15 74.1417 14.6161   1
   1  -3 -15 -0.2760 4.10217   2
  -1  -3  15 15.3444 11.1610   1
   1  -3 -15 2.45949 6.52448   1
   1   3 -15 4.40093 4.60494   2
   1   3 -15 7.28885 9.20975   1
   1   3 -15 0.01880 2.96801   3
   0  -3  15 41.2067 12.1920   1
   0  -3 -15 38.9831 9.60151   1
   0  -3 -15 39.1182 5.48034   2
   0   3 -15 32.0463 11.6941   1
   0   3 -15 25.7382 5.01373   3
   0   3 -15 29.4650 4.97328   2
  -1  -3 -15 25.9226 8.63885   1
  -1  -3 -15 19.7190 5.38555   2
   1  -3  15 30.3470 12.1639   1
  -1   3 -15 19.2422 4.07719   3
  -1   3 -15 33.4353 13.1662   1
  -1   3 -15 20.4941 4.75631   2
  -2  -3 -15 -0.9333 7.02755   1
  -2  -3 -15 -0.6190 4.20954   2
  -2   3 -15 -9.9448 9.48395   1
  -2   3 -15 0.19468 2.21239   3
  -2   3 -15 -2.1605 4.03765   2
  -3  -3 -15 14.3061 8.84700   1
  -3  -3 -15 11.3189 4.54248   2
  -3   3 -15 15.5894 4.69785   2
  -3   3 -15 8.51872 10.7657   1
  -3   3 -15 21.1421 12.4902   1
  -3   3 -15 15.1610 2.30802   3
  -4  -3 -15 -18.305 11.2019   1
  -4  -3 -15 -8.4159 4.00960   2
  -4   3 -15 0.56173 1.45262   3
  -4   3 -15 12.9632 10.3875   1
  -4   3 -15 -19.343 8.67506   1
  -4   3 -15 3.89660 3.70281   2
  -5  -3 -15 94.4818 8.89666   2
  -5  -3 -15 76.5459 12.9384   1
  -5   3 -15 68.2606 14.2392   1
  -5   3 -15 57.1438 13.8758   1
  -5   3 -15 80.3265 8.37059   2
  -6  -3 -15 7.22972 9.62446   1
  -6  -3 -15 5.31200 4.87377   2
  -6   3 -15 7.26259 4.65528   2
  -6   3 -15 14.0785 10.9668   1
  -7  -3 -15 23.0638 5.77672   2
  -7   3 -15 29.5918 5.48294   2
  -7   3 -15 2.20747 11.7957   1
  -8  -3 -15 3.74954 5.65809   2
  -8   3 -15 1.60287 4.26903   2
  -8   3 -15 -16.875 20.8999   1
  -9  -3 -15 -0.4215 4.71566   2
  -9   3 -15 -1.7369 5.06793   2
 -10  -4  15 11.7181 16.5600   1
  10  -4 -15 20.9190 6.81831   3
  10  -4 -15 25.5083 4.17639   2
  10   4 -15 20.6722 5.07195   3
  10   4 -15 17.4977 4.78507   2
   9  -4 -15 -6.2870 5.46682   3
   9  -4 -15 1.34440 3.41750   2
  -9  -4  15 -23.497 16.5553   1
   9   4 -15 5.39574 4.82390   2
   9   4 -15 1.54094 4.05067   3
  -8  -4  15 0.60334 15.8179   1
   8  -4 -15 14.0803 4.17679   2
   8  -4 -15 -8.4749 6.13401   1
   8  -4 -15 8.51263 6.68642   3
   8   4 -15 8.98625 4.30321   2
   8   4 -15 10.6334 4.22236   3
   7  -4 -15 -6.6127 5.95206   1
  -7  -4  15 -12.643 13.6581   1
   7  -4 -15 4.34963 3.83747   2
   7  -4 -15 4.79770 6.49444   3
   7   4 -15 0.35315 3.95908   2
   7   4 -15 0.06599 3.47170   3
  -6  -4  15 -2.0648 12.8678   1
   6  -4 -15 0.50054 3.99581   2
   6  -4 -15 1.64653 6.04852   1
   6  -4 -15 5.50549 6.69067   3
   6   4 -15 1.87032 3.30044   3
   6   4 -15 -0.5001 4.18561   2
   5  -4 -15 2.43725 4.15101   2
   5  -4 -15 3.20011 6.59967   3
   5  -4 -15 1.91430 5.91840   1
  -5  -4  15 24.8755 14.1954   1
   5   4 -15 -1.6946 2.98134   3
   5   4 -15 -7.0414 4.27232   2
   4  -4 -15 2.86587 6.70914   3
   4  -4 -15 4.91728 6.58203   1
  -4  -4  15 12.3640 13.6132   1
   4  -4 -15 -1.2485 4.15106   2
   4   4 -15 1.81796 4.57825   2
   4   4 -15 -2.0109 2.82621   3
   3  -4 -15 2.41618 6.46301   3
   3  -4 -15 2.87568 6.58726   1
  -3  -4  15 -8.9887 12.4710   1
   3  -4 -15 3.80484 3.99429   2
   3   4 -15 3.46782 2.83163   3
   3   4 -15 -2.0999 4.54877   2
  -2  -4  15 2.71296 12.4044   1
   2  -4 -15 6.48557 6.73252   1
   2  -4 -15 -6.1529 4.40225   2
   2   4 -15 3.36185 4.69001   2
   2   4 -15 -1.9137 3.49042   3
  -1  -4  15 88.5238 17.4122   1
   1  -4 -15 45.6393 5.91979   2
   1  -4 -15 24.6984 8.65007   1
   1   4 -15 35.0344 4.74326   3
   1   4 -15 44.7384 6.73657   2
   0  -4 -15 22.2619 8.78469   1
   0  -4 -15 26.8922 6.12876   2
   0  -4  15 55.7852 15.0645   1
   0   4 -15 22.6329 2.51724   3
   0   4 -15 21.7496 5.90712   2
  -1  -4 -15 46.4204 6.16449   2
  -1   4 -15 37.4238 6.14675   2
  -1   4 -15 14.2813 18.8316   1
  -2  -4 -15 22.4340 5.25467   2
  -2   4 -15 33.9367 6.66571   2
  -3  -4 -15 9.36140 5.46643   2
  -3   4 -15 13.4346 7.83587   2
  -4  -4 -15 25.2738 8.46892   2
  -4   4 -15 16.3933 7.09920   2
  -5  -4 -15 3.59526 4.86072   2
  -5   4 -15 0.27393 4.50712   2
  17   0 -16 1.02414 2.07564   2
  17   0 -16 -3.2435 6.15060   3
  16   0 -16 3.15749 7.40499   3
  16   0 -16 -0.6766 2.17324   2
  15   0 -16 -8.6399 11.5024   1
  15   0 -16 2.33849 5.66011   3
 -15   0  16 6.04581 14.2940   1
  15   0 -16 1.08189 2.52725   2
 -14   0  16 21.2527 12.3515   1
  14   0 -16 13.8135 3.20129   2
  14   0 -16 30.4053 10.2305   1
  14   0 -16 20.6224 7.33030   3
  13   0 -16 -0.2442 5.35418   3
  13   0 -16 3.74061 3.01131   2
  13   0 -16 3.75284 7.94723   1
 -13   0  16 15.3733 10.1893   1
  12   0 -16 6.65378 3.38993   2
  12   0 -16 -3.2856 8.47241   1
 -12   0  16 3.77694 9.20241   1
  12   0 -16 9.34175 6.40229   3
  11   0 -16 3.37375 3.27006   2
 -11   0  16 -1.1800 7.96956   1
  11   0 -16 -8.3410 7.84667   1
  10   0 -16 39.3402 10.2977   1
 -10   0  16 31.1696 10.0313   1
  10   0 -16 46.8461 7.56739   3
  10   0 -16 39.4806 4.75301   2
  -9   0  16 -1.8202 7.72338   1
   9   0 -16 3.12728 3.54282   2
   9   0 -16 16.3075 5.75931   3
   9   0 -16 9.96333 7.98617   1
   8   0 -16 13.6897 4.00871   2
   8   0 -16 -5.6674 7.64067   1
   8   0 -16 6.71652 5.59247   3
   7   0 -16 3.03832 3.40576   2
   7   0 -16 7.01695 8.45946   1
   7   0 -16 0.70765 4.96541   3
   6   0 -16 72.3892 8.57939   3
   6   0 -16 64.3342 7.42895   2
   6   0 -16 54.4744 11.2796   1
  -5   0  16 0.89058 8.36124   1
   5   0 -16 -0.7662 6.57516   1
   5   0 -16 2.20389 4.48561   3
   4   0 -16 11.2469 7.44605   1
   4   0 -16 27.1432 5.48909   3
   4   0 -16 12.2008 5.00562   2
   3   0 -16 47.2769 5.47214   2
   3   0 -16 38.9955 5.54523   3
   3   0 -16 43.0518 10.2652   1
   2   0 -16 21.1778 8.71241   1
   2   0 -16 46.5344 6.44725   3
   2   0 -16 22.5148 4.53587   2
   1   0 -16 177.542 18.2894   1
   1   0 -16 193.461 11.2823   3
   1   0 -16 193.744 10.9712   2
   0   0 -16 9.99568 8.46738   1
   0   0 -16 7.25258 4.26374   3
   0   0 -16 4.48351 4.14417   2
  -1   0 -16 46.8070 5.85899   3
  -1   0 -16 33.4537 10.3121   1
  -1   0 -16 43.8718 5.35667   2
  -1   0 -16 34.4298 10.0410   1
  -2   0 -16 45.0495 5.26811   3
  -2   0 -16 51.2279 5.92254   2
  -2   0 -16 36.2396 11.0941   1
  -2   0 -16 36.2039 10.2273   1
  -3   0 -16 7.58231 8.65825   1
  -3   0 -16 -0.5871 8.47333   1
  -3   0 -16 -1.1761 3.75979   3
  -3   0 -16 5.58076 3.88328   2
  -4   0 -16 310.670 14.6183   3
  -4   0 -16 298.988 14.9517   2
  -4   0 -16 298.526 24.7800   1
  -4   0 -16 301.772 23.4664   1
  -5   0 -16 99.0249 15.8306   1
  -5   0 -16 91.1428 8.68931   2
  -5   0 -16 84.3796 15.0341   1
  -5   0 -16 88.6466 7.96949   3
  -6   0 -16 16.2648 5.20530   2
  -6   0 -16 12.9520 10.4324   1
  -6   0 -16 26.5966 11.3382   1
  -6   0 -16 14.8280 4.62788   3
  -7   0 -16 248.064 12.4463   3
  -7   0 -16 257.385 22.0979   1
  -7   0 -16 210.699 12.9068   2
  -8   0 -16 67.5981 16.9498   1
  -8   0 -16 46.9076 5.73703   3
  -8   0 -16 74.6654 8.34164   2
  -9   0 -16 263.487 13.2421   3
  -9   0 -16 294.979 27.2948   1
  -9   0 -16 284.349 14.3462   2
  -9   0 -16 250.015 26.1770   1
 -10   0 -16 42.5726 5.51288   2
 -10   0 -16 13.7916 13.8199   1
 -10   0 -16 66.7082 16.2425   1
 -11   0 -16 136.399 13.4943   2
 -11   0 -16 88.5469 19.4566   1
  16  -1 -16 4.34110 2.34449   2
  16  -1 -16 7.13952 7.43459   3
  16   1 -16 -5.3902 6.27783   3
  16   1 -16 0.37095 2.62361   2
  15  -1 -16 3.96605 2.66382   2
  15  -1 -16 -5.8017 5.67229   3
 -15   1  16 -5.8088 11.1111   1
  15   1 -16 1.05316 5.93836   3
  15   1 -16 1.87339 3.17652   2
  15   1 -16 -11.373 10.6130   1
  14  -1 -16 -0.5920 6.18339   3
  14  -1 -16 4.43054 2.67772   2
  14  -1 -16 2.13317 8.61524   1
 -14  -1  16 -15.536 18.2252   1
 -14   1  16 0.82290 10.1974   1
  14   1 -16 7.90032 11.4126   1
  14   1 -16 -2.6646 6.18275   3
  13  -1 -16 3.15941 2.97458   2
  13  -1 -16 -1.9881 7.95751   1
 -13  -1  16 -12.327 15.1874   1
  13  -1 -16 0.48711 6.52287   3
 -13   1  16 -6.9598 8.37726   1
  13   1 -16 2.86382 9.97952   1
  13   1 -16 1.61669 6.16198   3
  12  -1 -16 19.6071 6.63097   3
  12  -1 -16 20.4903 8.80902   1
  12  -1 -16 13.5791 3.38791   2
  12   1 -16 14.6797 5.68395   3
  12   1 -16 18.8381 11.1485   1
 -12   1  16 17.3612 9.38648   1
  11  -1 -16 -0.5381 6.05029   3
  11  -1 -16 1.25647 3.13519   2
  11  -1 -16 -14.650 6.67007   1
 -11  -1  16 23.7604 18.1504   1
  11   1 -16 -6.4390 7.84545   3
  11   1 -16 -10.107 9.48366   1
  11   1 -16 -0.5144 4.66074   2
 -11   1  16 8.47264 8.59701   1
  10  -1 -16 -4.3988 7.14976   1
  10  -1 -16 5.90378 7.95859   3
  10  -1 -16 -0.2368 3.16475   2
 -10  -1  16 -9.3381 9.28996   1
  10   1 -16 1.91845 3.62458   2
  10   1 -16 -4.0810 9.23374   1
 -10   1  16 12.1996 7.96757   1
  10   1 -16 3.80997 5.20946   3
  -9  -1  16 0.69555 8.72048   1
   9  -1 -16 3.79283 3.34880   2
   9  -1 -16 8.32502 6.86127   1
   9  -1 -16 -1.8454 5.98200   3
   9   1 -16 7.29325 9.63237   1
  -9   1  16 1.32278 6.81915   1
   9   1 -16 0.18857 3.48557   2
   9   1 -16 -0.8283 4.47833   3
   8  -1 -16 8.64193 3.59913   2
   8  -1 -16 10.7701 6.00802   3
   8  -1 -16 -0.6267 7.02518   1
  -8  -1  16 22.6696 9.94836   1
   8   1 -16 2.23467 9.14310   1
   8   1 -16 11.1474 5.29977   3
   8   1 -16 7.10213 4.06438   2
   7  -1 -16 64.0474 7.65114   3
   7  -1 -16 62.4476 7.00789   2
  -7  -1  16 56.2470 12.6861   1
   7   1 -16 68.6117 7.38961   3
   7   1 -16 61.7628 6.29609   2
   7   1 -16 59.4333 13.2223   1
   6  -1 -16 5.64725 6.90780   1
   6  -1 -16 -1.1768 3.75831   2
   6  -1 -16 6.58638 4.99115   3
  -6  -1  16 -1.3130 9.74259   1
   6   1 -16 1.95489 4.30850   3
   6   1 -16 8.25903 10.0451   1
   6   1 -16 1.37334 3.45833   2
  -5  -1  16 -1.9199 9.34188   1
   5  -1 -16 -8.3978 6.17122   1
   5  -1 -16 4.07382 5.44521   3
   5   1 -16 -10.673 8.31530   1
   5   1 -16 -2.9373 4.17425   3
   5   1 -16 1.16660 3.60515   2
   4  -1 -16 57.7673 6.49422   2
  -4  -1  16 45.9632 11.1620   1
   4  -1 -16 40.2558 6.22230   3
   4  -1 -16 34.5698 9.84176   1
   4   1 -16 53.5691 5.90851   2
   4   1 -16 56.6272 6.73747   3
   4   1 -16 31.2970 10.8349   1
   3  -1 -16 58.5217 7.48081   3
   3  -1 -16 43.8119 9.82477   1
   3  -1 -16 40.1869 5.17006   2
  -3  -1  16 51.7497 12.3793   1
   3   1 -16 46.2846 5.96192   3
   3   1 -16 55.6067 6.07286   2
   3   1 -16 42.3230 11.9607   1
   2  -1 -16 9.26220 4.25593   2
   2  -1 -16 3.04001 4.43267   3
  -2  -1  16 -6.2088 7.78015   1
   2  -1 -16 12.5111 8.30861   1
   2   1 -16 10.0956 8.88258   1
   2   1 -16 6.76141 4.23772   2
   2   1 -16 0.54718 3.92612   3
   1  -1 -16 70.3566 7.49108   2
   1  -1 -16 41.6678 10.4791   1
   1  -1 -16 69.3725 7.51721   3
   1   1 -16 55.2908 5.86523   3
   1   1 -16 48.6247 5.58444   2
   1   1 -16 57.8461 12.2510   1
   0  -1 -16 -1.0531 8.10615   1
   0  -1 -16 0.16811 3.70182   2
   0  -1 -16 9.10113 7.96841   1
   0  -1 -16 15.1387 4.99404   3
   0   1 -16 1.07161 3.67837   2
   0   1 -16 10.1977 4.16172   3
   0   1 -16 1.76185 9.29699   1
  -1  -1 -16 33.5782 5.45606   2
  -1  -1 -16 24.9859 8.96333   1
  -1  -1 -16 24.3626 5.63779   3
  -1   1 -16 26.4541 4.84656   3
  -1   1 -16 27.7479 10.1166   1
  -1   1 -16 28.6129 5.39045   2
  -2  -1 -16 6.80578 4.14280   2
  -2  -1 -16 10.6426 5.60626   3
  -2  -1 -16 6.98290 8.38795   1
  -2  -1 -16 -3.2312 8.14134   1
  -2   1 -16 -7.4730 8.47023   1
  -2   1 -16 16.3408 8.92946   1
  -2   1 -16 4.48803 3.73340   2
  -2   1 -16 8.61973 3.94741   3
  -3  -1 -16 4.21335 4.78758   3
  -3  -1 -16 0.80323 4.09543   2
  -3  -1 -16 -4.3410 7.37593   1
  -3  -1 -16 -6.6390 9.27353   1
  -3   1 -16 -3.3687 8.19338   1
  -3   1 -16 -1.7276 3.38156   3
  -3   1 -16 -1.5447 4.14003   2
  -4  -1 -16 121.497 16.0755   1
  -4  -1 -16 131.979 16.7479   1
  -4  -1 -16 138.779 9.79507   2
  -4   1 -16 112.964 16.1450   1
  -4   1 -16 134.935 8.20765   3
  -4   1 -16 109.433 15.8175   1
  -4   1 -16 117.749 9.37573   2
  -5  -1 -16 9.60924 8.03427   1
  -5  -1 -16 -0.7175 8.93730   1
  -5  -1 -16 4.69114 4.77314   2
  -5   1 -16 13.8315 3.84501   3
  -5   1 -16 8.79685 10.1017   1
  -5   1 -16 -4.7863 10.0677   1
  -5   1 -16 4.89814 4.03869   2
  -6  -1 -16 -1.6608 4.40762   2
  -6  -1 -16 -12.979 9.98573   1
  -6  -1 -16 -10.728 10.6647   1
  -6   1 -16 -16.008 10.5556   1
  -6   1 -16 1.69366 3.84837   2
  -6   1 -16 4.79195 10.3982   1
  -6   1 -16 -0.9109 3.04417   3
  -7  -1 -16 8.42411 11.0992   1
  -7  -1 -16 10.9473 4.94892   2
  -7   1 -16 10.7415 10.5591   1
  -7   1 -16 10.9395 12.3274   1
  -7   1 -16 11.5620 4.19791   2
  -7   1 -16 14.6758 3.58164   3
  -8  -1 -16 78.6003 8.60617   2
  -8  -1 -16 63.3196 13.6320   1
  -8   1 -16 75.4241 5.97902   3
  -8   1 -16 81.0170 16.1033   1
  -8   1 -16 41.6182 14.2381   1
  -8   1 -16 72.3869 8.13385   2
  -9  -1 -16 76.9879 14.8710   1
  -9  -1 -16 59.3174 6.49161   2
  -9   1 -16 48.6015 14.3130   1
  -9   1 -16 77.5528 5.93118   3
  -9   1 -16 86.0618 16.1373   1
  -9   1 -16 78.9609 8.33687   2
 -10  -1 -16 -5.3397 5.14058   2
 -10   1 -16 -4.8397 4.41901   2
 -10   1 -16 -2.0094 2.72313   3
 -10   1 -16 -0.2823 13.5530   1
 -11  -1 -16 18.1684 5.77798   2
 -11   1 -16 45.9658 14.4160   1
 -11   1 -16 17.2288 3.34517   3
 -11   1 -16 -3.0259 6.02901   2
  15  -2 -16 4.44669 2.50164   2
  15  -2 -16 3.93206 6.95287   3
  15   2 -16 5.82500 3.36613   2
  15   2 -16 25.3860 14.9010   1
  15   2 -16 6.84600 6.47821   3
  14  -2 -16 9.23735 2.92186   2
  14  -2 -16 10.8819 7.27701   3
  14   2 -16 14.8623 7.00748   3
  14   2 -16 7.81114 3.92480   2
  14   2 -16 45.6518 12.8828   1
  13  -2 -16 23.9259 7.86774   3
 -13  -2  16 12.5320 17.2539   1
  13  -2 -16 26.4992 3.83252   2
  13   2 -16 25.9088 4.39718   2
  13   2 -16 29.5970 7.61318   3
  13   2 -16 14.2806 13.3867   1
 -12  -2  16 -3.8202 12.1244   1
  12  -2 -16 -0.3708 3.03446   2
  12  -2 -16 5.13897 8.58599   1
  12  -2 -16 -6.7433 6.35143   3
  12   2 -16 -0.4830 3.32755   2
  12   2 -16 0.49511 6.35150   3
  12   2 -16 -3.2090 11.0682   1
  11  -2 -16 13.1696 8.73446   1
 -11  -2  16 5.85267 13.0546   1
  11  -2 -16 -0.7831 3.01746   2
  11  -2 -16 -1.1784 5.68579   3
  11   2 -16 2.26282 3.49760   2
  11   2 -16 -0.4652 7.24902   3
  11   2 -16 1.62582 9.72185   1
  10  -2 -16 -13.986 7.51624   1
 -10  -2  16 -7.8090 11.2004   1
  10  -2 -16 1.39639 3.36336   2
  10  -2 -16 -2.9091 5.58549   3
  10   2 -16 8.51851 5.86913   3
  10   2 -16 -7.9678 9.21583   1
  10   2 -16 0.79026 3.38247   2
  -9  -2  16 13.9888 10.7289   1
   9  -2 -16 32.9511 7.55266   3
   9  -2 -16 14.5934 8.19104   1
   9  -2 -16 18.0588 4.05149   2
   9   2 -16 7.60247 11.2855   1
   9   2 -16 19.1162 5.96052   3
   9   2 -16 21.7010 4.48515   2
   8  -2 -16 11.1373 6.20706   2
   8  -2 -16 1.34186 8.03315   1
   8  -2 -16 10.5206 5.82016   3
  -8  -2  16 3.22742 10.6778   1
   8   2 -16 3.55029 9.64443   1
   8   2 -16 14.1205 4.37249   2
   8   2 -16 2.14415 4.99866   3
   7  -2 -16 16.1091 6.55321   3
  -7  -2  16 23.4198 12.0745   1
   7  -2 -16 23.6866 5.58419   2
   7   2 -16 14.4578 4.40303   2
   7   2 -16 30.4973 10.4675   1
   7   2 -16 22.6114 5.80481   3
   6  -2 -16 8.91624 4.00093   2
   6  -2 -16 21.7195 9.20894   1
  -6  -2  16 20.3712 11.3599   1
   6   2 -16 18.5591 9.99123   1
   6   2 -16 5.53081 3.93694   2
   6   2 -16 5.65945 5.03181   3
   5  -2 -16 4.74319 10.9089   3
   5  -2 -16 3.84361 7.04374   1
   5  -2 -16 4.89886 4.24496   2
  -5  -2  16 4.58639 10.0275   1
   5   2 -16 16.2713 4.91651   3
   5   2 -16 9.08567 9.34879   1
   5   2 -16 7.53698 4.40775   2
   4  -2 -16 10.3020 7.69927   1
   4  -2 -16 3.38615 7.28568   3
  -4  -2  16 18.9599 11.5725   1
   4  -2 -16 7.32828 4.37610   2
   4   2 -16 8.53735 4.53552   2
   4   2 -16 8.41882 4.25578   3
   4   2 -16 16.8236 9.90388   1
   3  -2 -16 11.5142 8.52551   1
   3  -2 -16 30.1328 7.20099   3
  -3  -2  16 29.2675 10.8655   1
   3  -2 -16 33.1362 5.39141   2
   3   2 -16 14.8127 10.8145   1
   3   2 -16 33.3110 5.56964   2
   3   2 -16 28.5559 4.59730   3
   2  -2 -16 30.1453 9.43389   1
   2  -2 -16 63.4804 7.43189   2
   2  -2 -16 73.6876 8.26320   3
  -2  -2  16 49.6897 13.6821   1
   2   2 -16 52.3213 6.54027   3
   2   2 -16 61.6261 6.65677   2
   2   2 -16 62.1366 13.2472   1
  -1  -2  16 4.05305 9.54597   1
   1  -2 -16 2.65243 6.96068   1
   1  -2 -16 -0.3210 5.37467   3
   1  -2 -16 0.55973 3.79044   2
   1   2 -16 6.58504 9.37620   1
   1   2 -16 0.71112 3.82051   2
   1   2 -16 6.76285 3.51852   3
   0  -2 -16 0.18298 5.78326   3
   0  -2 -16 16.0667 8.12288   1
   0  -2 -16 -2.6501 4.28320   2
   0   2 -16 12.3843 10.0893   1
   0   2 -16 3.58761 3.78388   2
   0   2 -16 0.35802 3.12780   3
  -1  -2 -16 -1.8112 5.14228   3
  -1  -2 -16 -0.7822 3.88792   2
  -1  -2 -16 18.7820 8.31712   1
  -1   2 -16 6.35766 9.06076   1
  -1   2 -16 -0.3665 3.08786   3
  -1   2 -16 -9.1045 3.94821   2
  -2  -2 -16 28.5561 10.6247   1
  -2  -2 -16 34.9855 5.36677   2
  -2   2 -16 49.9265 12.9237   1
  -2   2 -16 36.4327 11.9063   1
  -2   2 -16 47.0099 4.59861   3
  -2   2 -16 25.8995 4.81864   2
  -3  -2 -16 89.5680 14.2800   1
  -3  -2 -16 82.7370 8.66702   2
  -3   2 -16 107.037 16.0641   1
  -3   2 -16 79.5533 6.03578   3
  -3   2 -16 31.0607 12.0085   1
  -3   2 -16 86.0995 8.58317   2
  -4  -2 -16 58.9798 6.91138   2
  -4  -2 -16 71.6419 12.5514   1
  -4   2 -16 50.0521 5.25768   3
  -4   2 -16 51.3994 6.06028   2
  -4   2 -16 58.1189 13.7632   1
  -4   2 -16 58.2043 14.2581   1
  -5  -2 -16 89.8296 9.34619   2
  -5  -2 -16 102.650 15.5711   1
  -5   2 -16 121.967 9.20050   2
  -5   2 -16 106.496 17.5862   1
  -5   2 -16 94.3868 16.3783   1
  -6  -2 -16 14.2755 10.4199   1
  -6  -2 -16 17.8184 5.54057   2
  -6   2 -16 34.5072 12.3425   1
  -6   2 -16 34.1778 21.5254   1
  -6   2 -16 20.2354 4.72095   2
  -7  -2 -16 22.9269 5.47325   2
  -7   2 -16 2.03660 12.1386   1
  -7   2 -16 21.6901 3.10478   3
  -7   2 -16 13.0984 12.0273   1
  -7   2 -16 18.5773 4.81792   2
  -8  -2 -16 3.54468 4.66861   2
  -8   2 -16 5.74093 2.09719   3
  -8   2 -16 2.95191 14.1468   1
  -8   2 -16 2.72376 12.7847   1
  -8   2 -16 12.6555 4.31714   2
  -9  -2 -16 2.38169 5.75605   2
  -9   2 -16 -0.2925 6.04967   2
  -9   2 -16 5.44372 16.0046   1
 -10  -2 -16 7.97957 5.15557   2
 -10   2 -16 1.59175 4.48890   2
  12  -3 -16 10.7605 3.59279   2
  12  -3 -16 6.11800 7.17297   3
  12   3 -16 2.66989 11.7555   1
  12   3 -16 4.65984 4.16260   2
  12   3 -16 13.8601 5.31185   3
  11  -3 -16 2.26309 6.70306   3
 -11  -3  16 22.2453 16.8948   1
  11   3 -16 2.10240 5.07835   3
  11   3 -16 5.79433 4.30532   2
  11   3 -16 -3.4642 12.4882   1
  10  -3 -16 -0.2613 3.30736   2
 -10  -3  16 2.89375 15.9969   1
  10  -3 -16 12.0817 10.9678   1
  10  -3 -16 -2.0498 5.81730   3
  10   3 -16 4.66005 3.76002   2
  10   3 -16 -3.4131 11.3345   1
  10   3 -16 7.04490 6.23076   3
   9  -3 -16 3.44007 7.40614   1
  -9  -3  16 -16.725 12.9612   1
   9  -3 -16 6.18605 5.96105   3
   9  -3 -16 0.26335 3.56118   2
   9   3 -16 1.35309 13.5381   1
   9   3 -16 3.50075 4.27607   2
   9   3 -16 6.29058 4.93123   3
   8  -3 -16 7.24907 3.90523   2
  -8  -3  16 7.68901 12.9144   1
   8  -3 -16 6.62304 6.93039   3
   8  -3 -16 10.6620 7.33682   1
   8   3 -16 10.5295 20.1156   1
   8   3 -16 0.85389 4.05935   2
   8   3 -16 0.60703 4.73854   3
   7  -3 -16 7.05702 3.94317   2
   7  -3 -16 0.65220 5.73518   3
   7  -3 -16 4.90765 7.03570   1
  -7  -3  16 10.9435 13.9176   1
   7   3 -16 9.14998 4.94771   2
   7   3 -16 13.8756 4.77001   3
   6  -3 -16 -2.3801 5.56789   3
   6  -3 -16 -1.3094 6.90237   1
   6  -3 -16 1.17748 3.60399   2
   6   3 -16 -0.4318 4.19835   2
   6   3 -16 -0.3590 15.1483   1
   6   3 -16 3.05451 4.21977   3
  -5  -3  16 -20.870 10.6782   1
   5  -3 -16 7.74183 6.69537   3
   5  -3 -16 -1.5597 3.81489   2
   5  -3 -16 -2.7632 7.34539   1
   5   3 -16 -1.4925 3.89781   3
   5   3 -16 6.36917 4.35319   2
   4  -3 -16 -1.5338 7.41486   1
   4  -3 -16 2.61999 6.29115   3
   4  -3 -16 12.4312 4.37362   2
  -4  -3  16 26.7781 12.5480   1
   4   3 -16 5.58526 4.00850   3
   4   3 -16 5.56022 4.27605   2
   3  -3 -16 68.9392 11.3813   1
   3  -3 -16 96.0298 10.0306   3
   3  -3 -16 76.4539 8.23770   2
  -3  -3  16 86.6987 15.6394   1
   3   3 -16 72.7942 7.20310   3
   3   3 -16 69.9393 7.12160   2
   2  -3 -16 11.5022 6.61404   3
   2  -3 -16 14.2491 4.64670   2
  -2  -3  16 36.2249 14.8093   1
   2  -3 -16 5.39444 7.79125   1
   2   3 -16 -2.9121 16.6290   1
   2   3 -16 17.2937 3.95792   3
   2   3 -16 17.6158 5.22396   2
   1  -3 -16 13.8843 6.60333   3
  -1  -3  16 17.6947 12.0111   1
   1  -3 -16 29.1189 5.62169   2
   1  -3 -16 7.14507 8.39160   1
   1   3 -16 28.8091 4.13802   3
   1   3 -16 25.4411 14.7825   1
   1   3 -16 34.5846 5.98510   2
   0  -3  16 2.31521 12.8361   1
   0  -3 -16 8.19701 4.74426   2
   0  -3 -16 13.9183 8.35173   1
   0   3 -16 6.21173 4.04986   2
   0   3 -16 8.44135 3.19764   3
   0   3 -16 -0.3508 10.7825   1
  -1  -3 -16 61.7002 12.0043   1
  -1  -3 -16 81.8865 8.70091   2
  -1   3 -16 64.7325 15.3710   1
  -1   3 -16 73.6974 7.50382   2
  -1   3 -16 61.9108 17.6577   1
  -2  -3 -16 -0.7190 4.93316   2
  -2  -3 -16 0.72188 9.11009   1
  -2   3 -16 0.95568 2.52576   3
  -2   3 -16 2.44909 3.97147   2
  -2   3 -16 -1.3684 12.8393   1
  -2   3 -16 -16.578 10.9882   1
  -3  -3 -16 11.4716 5.45407   2
  -3  -3 -16 4.62952 9.18657   1
  -3   3 -16 2.09794 1.95101   3
  -3   3 -16 -11.414 15.0277   1
  -3   3 -16 7.41029 4.99402   2
  -4  -3 -16 6.22622 5.15829   2
  -4   3 -16 38.3106 18.6167   1
  -4   3 -16 4.14467 4.25559   2
  -5  -3 -16 4.84684 6.68461   2
  -5   3 -16 2.40735 4.42969   2
  -5   3 -16 27.4251 17.9214   1
  -6  -3 -16 11.6021 7.72535   2
  -6   3 -16 10.4218 4.86761   2
  -7  -3 -16 -3.9393 4.76730   2
  -7   3 -16 6.92508 4.17268   2
   6  -4 -16 8.13196 6.34393   3
   6  -4 -16 5.26995 3.96839   2
   6   4 -16 3.35633 3.40491   3
   6   4 -16 -2.0026 4.74544   2
   5  -4 -16 -4.6776 6.94880   3
   5  -4 -16 -0.7859 3.96023   2
   5   4 -16 2.56134 5.18415   2
   5   4 -16 1.95941 3.14437   3
   4  -4 -16 11.2872 7.04105   3
   4  -4 -16 17.1296 4.84403   2
   4   4 -16 35.4051 7.09031   2
   4   4 -16 6.97451 3.17912   3
   3  -4 -16 1.22707 4.82063   2
   3  -4 -16 2.11536 7.37852   3
   3   4 -16 4.50582 2.84485   3
   3   4 -16 1.17399 5.55520   2
   2  -4 -16 20.0631 5.04787   2
   2  -4 -16 18.4169 7.67500   3
   2   4 -16 23.5681 5.71522   2
   2   4 -16 25.3602 3.36295   3
   1  -4 -16 40.8048 7.15082   2
   1   4 -16 25.9407 6.27647   2
   0   4 -16 5.49943 5.30124   2
  -1  -4 -16 -4.9278 5.60358   2
  -1   4 -16 3.40695 4.75278   2
  15   0 -17 2.66242 2.78268   2
  15   0 -17 -0.7031 5.84572   3
  14   0 -17 -3.9905 5.73162   3
  14   0 -17 0.09810 5.76219   2
  13   0 -17 7.41836 6.29026   3
 -13   0  17 15.2640 25.1918   1
  13   0 -17 0.66177 3.36299   2
  12   0 -17 8.06388 9.83553   1
 -12   0  17 7.93886 11.9898   1
  12   0 -17 2.87315 5.69537   3
  12   0 -17 0.78319 3.41119   2
  11   0 -17 -1.7018 5.99961   3
  11   0 -17 0.19466 3.34083   2
 -11   0  17 11.4863 11.3089   1
  11   0 -17 5.41764 9.84672   1
 -10   0  17 16.6819 10.0995   1
  10   0 -17 -1.4663 5.47113   3
  10   0 -17 13.9221 9.68962   1
   9   0 -17 11.4907 9.51245   1
  -9   0  17 0.44257 9.00881   1
   9   0 -17 6.94675 6.73810   3
   9   0 -17 -1.8885 3.31461   2
   8   0 -17 2.17644 3.72687   2
  -8   0  17 -13.060 7.03774   1
   8   0 -17 -5.9534 7.54419   1
   8   0 -17 -5.5479 10.3446   3
   7   0 -17 -2.0650 3.51424   2
   7   0 -17 3.50166 7.94459   1
   7   0 -17 -7.0097 5.17383   3
   6   0 -17 -8.0187 7.46448   1
   6   0 -17 0.56853 4.91017   3
   6   0 -17 -1.4807 3.64324   2
   5   0 -17 0.77367 4.63490   3
   5   0 -17 -4.3019 7.18746   1
   5   0 -17 3.01417 3.54494   2
   4   0 -17 -0.4791 3.40386   2
   4   0 -17 1.61975 7.14138   1
   4   0 -17 -0.3144 4.89970   3
   3   0 -17 3.16652 4.31689   3
   3   0 -17 6.68523 8.67562   1
   3   0 -17 1.13885 3.34787   2
   2   0 -17 -3.4852 3.95710   3
   2   0 -17 12.3964 8.94161   1
   2   0 -17 0.63156 3.46535   2
   1   0 -17 0.30707 3.73981   2
   1   0 -17 1.87724 7.92970   1
   1   0 -17 -0.1257 4.51019   3
   0   0 -17 -5.2484 8.85634   1
   0   0 -17 1.16546 4.14985   3
   0   0 -17 -6.8464 3.74461   2
   0   0 -17 5.88448 9.47363   1
  -1   0 -17 -4.1334 10.3432   1
  -1   0 -17 -1.3115 3.64044   2
  -1   0 -17 9.03844 8.80298   1
  -1   0 -17 -0.3117 3.86020   3
  -2   0 -17 -1.9091 4.06164   2
  -2   0 -17 0.23195 3.60119   3
  -2   0 -17 5.84911 10.5278   1
  -2   0 -17 -10.033 8.80393   1
  -3   0 -17 -12.761 10.1939   1
  -3   0 -17 -16.078 9.68823   1
  -3   0 -17 -5.2890 4.06292   2
  -3   0 -17 0.25782 3.65309   3
  -4   0 -17 1.98891 3.90698   3
  -4   0 -17 -10.038 9.89706   1
  -4   0 -17 23.0986 11.1044   1
  -4   0 -17 1.53882 3.94567   2
  -5   0 -17 8.77332 10.8880   1
  -5   0 -17 -0.6905 3.83411   3
  -5   0 -17 1.88963 3.94227   2
  -5   0 -17 10.5578 10.3273   1
  -6   0 -17 3.02710 13.4226   1
  -6   0 -17 3.57422 4.04070   3
  -6   0 -17 -26.288 12.5723   1
  -6   0 -17 -2.2949 3.88457   2
  -7   0 -17 22.7981 12.4694   1
  -7   0 -17 -1.5767 3.86223   3
  -7   0 -17 -1.4501 4.07642   2
  -8   0 -17 -2.0800 4.56103   2
  -8   0 -17 0.98259 13.3725   1
  -8   0 -17 0.47702 4.08976   3
  -9   0 -17 -0.6133 3.76069   3
  -9   0 -17 6.53398 5.15093   2
  15  -1 -17 14.9036 7.16860   3
  15  -1 -17 4.33382 2.74115   2
  15   1 -17 2.49567 2.97182   2
  15   1 -17 -2.6064 5.98073   3
  14  -1 -17 1.65155 6.82175   3
  14  -1 -17 7.03848 3.08244   2
  14   1 -17 3.13569 3.32940   2
  14   1 -17 4.89953 6.15946   3
  13  -1 -17 2.41062 6.18328   3
  13  -1 -17 2.20768 3.01552   2
  13   1 -17 0.06970 3.41495   2
  13   1 -17 3.30483 6.73984   3
 -13   1  17 13.4306 14.6434   1
  13   1 -17 2.31813 14.5920   1
  12  -1 -17 9.34146 7.24154   3
  12   1 -17 8.36180 6.17192   3
  12   1 -17 -7.5751 11.2717   1
  12   1 -17 -5.1598 3.00305   2
 -12   1  17 2.95814 10.8455   1
 -11  -1  17 33.1063 25.4269   1
  11  -1 -17 4.50884 5.43357   2
  11  -1 -17 9.45056 8.47281   1
  11  -1 -17 -1.6848 6.04647   3
  11   1 -17 1.11521 5.10003   3
  11   1 -17 -3.4885 3.23622   2
  11   1 -17 -9.5700 11.2992   1
 -11   1  17 -3.7235 9.72915   1
 -10  -1  17 12.2529 15.7644   1
  10  -1 -17 8.46744 3.79306   2
  10  -1 -17 6.81417 8.95589   1
  10  -1 -17 0.94851 6.47666   3
  10   1 -17 11.0938 5.88561   3
  10   1 -17 6.43863 3.65045   2
  10   1 -17 23.3559 11.5567   1
   9  -1 -17 20.3201 6.60232   3
  -9  -1  17 -2.4317 11.9315   1
   9  -1 -17 20.3651 9.42000   1
   9  -1 -17 -0.1631 3.48601   2
   9   1 -17 11.0951 4.06546   2
   9   1 -17 0.29171 9.62779   1
   8  -1 -17 2.45892 5.56598   3
   8  -1 -17 8.01059 7.94745   1
   8  -1 -17 -2.5548 3.49945   2
  -8  -1  17 -3.3008 10.8128   1
   8   1 -17 -4.5609 4.62111   3
   8   1 -17 -3.4276 3.75339   2
   8   1 -17 -6.2213 8.91197   1
   7  -1 -17 3.03350 3.92286   2
   7  -1 -17 8.94093 8.60959   1
   7  -1 -17 -1.1457 5.55879   3
  -7  -1  17 15.8286 11.0660   1
   7   1 -17 -1.1186 4.47481   3
   7   1 -17 -5.3371 3.28856   2
   6  -1 -17 31.7475 4.84716   2
  -6  -1  17 45.0830 13.4977   1
   6  -1 -17 18.0570 9.42241   1
   6  -1 -17 28.5221 8.34891   3
   6   1 -17 43.0234 12.8819   1
   6   1 -17 31.7852 5.00719   2
   6   1 -17 42.2941 6.21285   3
   5  -1 -17 22.3335 4.40024   2
  -5  -1  17 20.0716 11.6681   1
   5  -1 -17 27.5154 7.97271   3
   5  -1 -17 17.6477 8.78950   1
   5   1 -17 39.6558 5.59024   2
   5   1 -17 21.8820 11.3851   1
   5   1 -17 32.0828 6.23003   3
   4  -1 -17 -5.5068 8.14769   1
   4  -1 -17 0.82470 3.74951   2
   4  -1 -17 3.54760 5.59026   3
  -4  -1  17 -8.8549 8.29342   1
   4   1 -17 -0.5434 4.01358   2
   4   1 -17 15.1195 9.56351   1
   4   1 -17 7.19280 5.07573   3
   3  -1 -17 31.6904 6.02050   3
  -3  -1  17 38.0248 11.1541   1
   3  -1 -17 36.0474 5.03595   2
   3  -1 -17 7.57628 9.45753   1
   3   1 -17 52.5900 5.90410   2
   3   1 -17 44.9981 5.97197   3
   3   1 -17 16.7198 10.8368   1
   2  -1 -17 14.9437 4.26313   2
   2  -1 -17 12.7446 8.38395   1
   2  -1 -17 26.1901 6.27188   3
   2   1 -17 24.4611 5.31410   2
   2   1 -17 15.3279 9.45979   1
   2   1 -17 24.0849 4.93575   3
   1  -1 -17 -4.7858 4.18954   3
   1  -1 -17 -9.3064 8.08570   1
   1  -1 -17 3.49010 4.14124   2
   1   1 -17 13.1150 9.49589   1
   1   1 -17 0.10683 4.00475   3
   1   1 -17 5.26074 4.19673   2
   0  -1 -17 3.31358 4.00538   2
   0  -1 -17 7.80216 4.86984   3
   0   1 -17 7.86536 4.01845   3
   0   1 -17 4.85831 3.84817   2
   0   1 -17 -8.7205 9.98783   1
  -1  -1 -17 5.23439 9.31149   1
  -1  -1 -17 3.89021 5.18470   3
  -1  -1 -17 2.85495 3.98190   2
  -1   1 -17 1.99302 4.47754   2
  -1   1 -17 6.89184 3.98748   3
  -1   1 -17 30.8148 17.8600   1
  -1   1 -17 9.03663 9.20164   1
  -2  -1 -17 25.9728 9.93138   1
  -2  -1 -17 31.3710 5.13436   2
  -2  -1 -17 41.5341 6.65712   3
  -2   1 -17 28.0845 11.8329   1
  -2   1 -17 30.5153 11.6581   1
  -2   1 -17 27.2618 4.51969   3
  -2   1 -17 21.6067 4.59624   2
  -3  -1 -17 2.95199 8.75534   1
  -3  -1 -17 0.36490 4.54615   2
  -3  -1 -17 -4.3265 4.96880   3
  -3   1 -17 -6.0147 9.13747   1
  -3   1 -17 3.93172 4.51746   2
  -3   1 -17 2.89446 3.57137   3
  -3   1 -17 21.8028 11.7947   1
  -4  -1 -17 25.1161 11.4994   1
  -4  -1 -17 35.4352 5.89159   2
  -4  -1 -17 38.3858 6.58056   3
  -4   1 -17 30.9526 5.49789   2
  -4   1 -17 40.4048 12.4748   1
  -4   1 -17 19.8233 10.9593   1
  -4   1 -17 30.7332 4.60832   3
  -5  -1 -17 33.9469 11.7200   1
  -5  -1 -17 40.2196 5.97037   2
  -5   1 -17 47.3603 13.5434   1
  -5   1 -17 48.5629 5.29878   3
  -5   1 -17 31.7232 5.20570   2
  -5   1 -17 27.8158 11.9877   1
  -6  -1 -17 25.6847 12.3137   1
  -6  -1 -17 7.89778 4.78254   2
  -6   1 -17 7.14671 11.7629   1
  -6   1 -17 15.9623 3.90415   3
  -6   1 -17 7.51314 4.14076   2
  -7  -1 -17 10.5942 5.26144   2
  -7   1 -17 6.30265 4.16619   2
  -7   1 -17 1.11817 10.7426   1
  -7   1 -17 17.7729 3.81406   3
  -8  -1 -17 -4.1194 9.28103   2
  -8   1 -17 8.34028 3.42859   3
  -8   1 -17 29.4572 14.3849   1
  -8   1 -17 16.2719 12.3916   1
  -9  -1 -17 96.6099 9.43735   2
  -9   1 -17 105.494 18.8475   1
  -9   1 -17 92.1056 23.6907   1
  -9   1 -17 89.6935 9.09393   2
  -9   1 -17 86.8338 6.52869   3
  13  -2 -17 13.3808 7.43643   3
  13  -2 -17 19.3128 3.70684   2
  13   2 -17 23.4109 7.18049   3
  13   2 -17 14.3292 3.82157   2
  12  -2 -17 1.12694 6.69941   3
  12   2 -17 6.73885 12.5360   1
  12   2 -17 0.26406 5.97847   3
  12   2 -17 3.52078 3.73318   2
  11  -2 -17 -0.4666 3.22600   2
  11  -2 -17 9.88040 6.99161   3
 -11  -2  17 8.61426 16.0753   1
  11   2 -17 1.65623 3.55640   2
  11   2 -17 3.63356 11.3233   1
  11   2 -17 -1.9745 5.74289   3
  10  -2 -17 18.8181 6.75056   3
 -10  -2  17 -4.6680 15.0842   1
  10  -2 -17 22.3420 4.26757   2
  10   2 -17 26.8418 6.66859   3
  10   2 -17 13.0597 12.3742   1
  10   2 -17 17.1292 4.15625   2
   9  -2 -17 5.65154 3.79359   2
   9  -2 -17 6.91658 6.71472   3
  -9  -2  17 25.6647 15.6082   1
   9  -2 -17 5.45704 8.38309   1
   9   2 -17 0.28484 6.19724   3
   9   2 -17 5.55585 11.7264   1
   9   2 -17 6.20160 4.11851   2
   8  -2 -17 6.82921 8.50266   1
   8  -2 -17 12.3931 6.34010   3
  -8  -2  17 15.4524 12.7892   1
   8  -2 -17 14.7268 4.38134   2
   8   2 -17 10.6302 4.11128   2
   8   2 -17 11.6891 11.1610   1
   8   2 -17 19.6416 5.83180   3
   7  -2 -17 6.44286 3.93169   2
  -7  -2  17 -4.4206 11.9053   1
   7  -2 -17 8.37797 6.07252   3
   7   2 -17 4.98056 11.1192   1
   7   2 -17 10.9981 4.67280   2
   7   2 -17 10.4046 5.07654   3
  -6  -2  17 15.4647 12.9131   1
   6  -2 -17 2.70318 13.2115   1
   6  -2 -17 25.6384 5.00318   2
   6  -2 -17 42.6957 7.74362   3
   6   2 -17 28.5940 11.9590   1
   6   2 -17 25.8080 4.83209   2
   6   2 -17 29.1789 5.51678   3
   5  -2 -17 220.047 11.9156   2
   5  -2 -17 242.240 14.4000   3
  -5  -2  17 212.127 22.8336   1
   5  -2 -17 170.517 19.0891   1
   5   2 -17 202.583 23.9377   1
   5   2 -17 211.055 12.2768   2
   5   2 -17 208.727 12.1786   3
  -4  -2  17 1.72155 12.2631   1
   4  -2 -17 1.76504 5.85473   3
   4  -2 -17 2.10964 8.64362   1
   4  -2 -17 -0.7614 4.41515   2
   4   2 -17 1.37507 4.08618   3
   4   2 -17 2.92154 10.6545   1
   4   2 -17 0.78033 3.88727   2
   3  -2 -17 77.7044 12.0859   1
  -3  -2  17 63.0405 15.0936   1
   3  -2 -17 71.2060 8.01536   2
   3  -2 -17 79.9096 8.73481   3
   3   2 -17 71.8551 8.22797   2
   3   2 -17 46.1664 14.1542   1
   3   2 -17 70.4925 7.43174   3
   2  -2 -17 -0.0491 5.64227   3
   2  -2 -17 -9.3669 3.75094   2
  -2  -2  17 11.8116 10.8105   1
   2  -2 -17 -10.010 7.44357   1
   2   2 -17 -1.3662 3.51327   3
   2   2 -17 4.00885 9.62020   1
   2   2 -17 -1.4090 3.71188   2
   1  -2 -17 27.7179 9.35357   1
   1  -2 -17 21.6968 4.78266   2
   1  -2 -17 47.3808 7.68628   3
   1   2 -17 11.0700 11.3071   1
   1   2 -17 33.6268 5.53150   2
   1   2 -17 27.2077 4.48107   3
   0  -2 -17 5.55983 4.83774   2
   0  -2 -17 13.2467 6.39444   3
   0  -2 -17 8.59562 8.94192   1
   0   2 -17 9.70812 4.73556   2
   0   2 -17 4.70632 3.45812   3
   0   2 -17 26.5003 11.1973   1
  -1  -2 -17 -1.5029 5.35861   3
  -1  -2 -17 1.51052 8.89026   1
  -1  -2 -17 -1.6491 4.17639   2
  -1   2 -17 -1.7046 10.8639   1
  -1   2 -17 -5.0526 3.62219   2
  -1   2 -17 3.60200 3.24603   3
  -2  -2 -17 25.5147 5.16216   2
  -2  -2 -17 17.4695 5.83700   3
  -2  -2 -17 23.1632 9.41901   1
  -2   2 -17 26.3043 4.00353   3
  -2   2 -17 16.7861 11.4067   1
  -2   2 -17 -7.0476 11.2065   1
  -2   2 -17 30.4932 5.70401   2
  -3  -2 -17 12.5132 5.26110   2
  -3  -2 -17 13.9142 10.4556   1
  -3   2 -17 8.43131 10.7832   1
  -3   2 -17 4.28886 4.49361   2
  -3   2 -17 -3.1742 11.0257   1
  -3   2 -17 7.39782 3.12667   3
  -4  -2 -17 11.4986 5.27762   2
  -4   2 -17 15.1074 13.6379   1
  -4   2 -17 5.86592 2.93886   3
  -4   2 -17 0.18918 3.98279   2
  -5  -2 -17 47.6663 7.06881   2
  -5   2 -17 50.8557 14.3336   1
  -5   2 -17 39.6467 15.9723   1
  -5   2 -17 43.5139 6.55544   2
  -5   2 -17 34.4179 3.84089   3
  -6  -2 -17 8.67488 9.85378   2
  -6   2 -17 2.78345 11.7338   1
  -6   2 -17 23.4427 13.9497   1
  -7  -2 -17 11.4507 5.18482   2
  -7   2 -17 11.7029 5.92997   2
  -7   2 -17 23.8617 20.0514   1
   9  -3 -17 28.4651 6.89822   3
   9  -3 -17 24.0104 4.54274   2
   9   3 -17 20.0943 5.29717   3
   9   3 -17 22.0115 5.15898   2
  -8  -3  17 5.81441 16.8916   1
   8  -3 -17 -2.7872 3.57405   2
   8  -3 -17 5.46077 7.01627   3
   8   3 -17 2.77711 4.31992   2
   8   3 -17 -8.0157 13.5583   1
   7  -3 -17 -4.7586 5.68191   3
  -7  -3  17 -10.474 15.5232   1
   7  -3 -17 0.29178 4.07184   2
   7   3 -17 4.34481 4.55429   3
   7   3 -17 -2.5053 4.66874   2
   7   3 -17 -12.588 13.2574   1
   6  -3 -17 14.0386 4.29006   2
   6  -3 -17 28.4715 7.91244   3
  -6  -3  17 21.1477 16.5867   1
   6   3 -17 20.8714 13.8619   1
   6   3 -17 13.1587 5.09582   2
   6   3 -17 18.3205 5.23057   3
   5  -3 -17 4.47981 4.12031   2
   5  -3 -17 6.33048 6.33066   3
  -5  -3  17 22.9852 16.6054   1
   5   3 -17 10.1209 4.42883   3
   5   3 -17 4.84442 12.5139   1
   5   3 -17 4.52535 4.75470   2
   4  -3 -17 72.9219 8.38183   2
   4  -3 -17 89.3518 10.4027   3
  -4  -3  17 78.3048 17.7628   1
   4   3 -17 71.6791 7.59276   2
   4   3 -17 43.6410 14.9289   1
   4   3 -17 71.7916 7.47958   3
   3  -3 -17 -0.3125 4.12696   2
   3  -3 -17 1.00137 6.39424   3
  -3  -3  17 26.0796 14.8951   1
   3   3 -17 -1.8659 4.66722   2
   3   3 -17 16.2752 13.1789   1
   3   3 -17 -1.4768 3.64286   3
  -2  -3  17 -1.4078 12.6482   1
   2  -3 -17 2.74134 6.54159   3
   2  -3 -17 11.3285 5.05813   2
   2   3 -17 0.82568 14.5132   1
   2   3 -17 8.16281 5.46025   2
   2   3 -17 5.58366 3.67748   3
  -1  -3  17 -18.022 14.9324   1
   1  -3 -17 1.98607 7.12869   3
   1  -3 -17 -3.1156 3.98748   2
   1   3 -17 -0.7574 3.22926   3
   1   3 -17 -1.0747 4.27969   2
   0  -3 -17 107.599 9.58274   2
   0  -3 -17 99.2748 11.9486   3
   0   3 -17 82.8264 6.48406   3
   0   3 -17 85.7398 11.4536   2
  -1  -3 -17 89.3650 9.43306   2
  -1  -3 -17 50.4698 8.22833   3
  -1   3 -17 83.2765 5.88901   3
  -1   3 -17 38.1358 17.1154   1
  -2  -3 -17 12.7914 5.75663   2
  -2   3 -17 -13.013 4.34104   2
  -3  -3 -17 115.573 11.5924   2
  -3   3 -17 119.178 9.90423   2
  -4  -3 -17 6.95776 5.45347   2
  -4   3 -17 9.29174 5.13031   2
  13   0 -18 -1.4369 5.80419   3
  13   0 -18 -6.1422 2.90035   2
  12   0 -18 -3.8457 6.09154   3
  12   0 -18 6.71684 3.43453   2
  11   0 -18 0.03993 3.38989   2
  11   0 -18 2.76822 5.81073   3
  10   0 -18 8.01848 3.93304   2
  10   0 -18 15.6246 7.12609   3
   9   0 -18 -13.505 9.97475   1
   9   0 -18 3.69206 3.69354   2
   9   0 -18 0.40473 6.06340   3
  -9   0  18 15.2117 12.9778   1
  -8   0  18 51.3996 13.8708   1
   8   0 -18 42.5677 12.0572   1
   8   0 -18 92.1244 10.7052   3
   8   0 -18 91.0384 8.00557   2
   7   0 -18 52.8515 7.96945   3
   7   0 -18 34.8516 5.28398   2
   7   0 -18 17.5816 10.5697   1
   6   0 -18 21.0565 10.7739   1
   6   0 -18 15.2226 6.04251   3
   6   0 -18 10.7111 4.52756   2
   5   0 -18 0.95067 5.22587   3
   5   0 -18 14.4744 9.56491   1
   5   0 -18 -0.1946 3.76897   2
   4   0 -18 -0.4326 3.60361   2
   4   0 -18 8.62447 10.2757   1
   3   0 -18 11.0470 9.90548   1
   3   0 -18 6.31649 4.01383   2
   3   0 -18 8.19455 6.96378   3
   2   0 -18 3.81799 4.65482   3
   2   0 -18 5.66084 4.23240   2
   2   0 -18 17.5630 9.64114   1
   1   0 -18 11.3480 10.0235   1
   1   0 -18 3.20510 4.17574   3
   1   0 -18 0.53973 4.28100   2
   0   0 -18 24.1534 4.91325   3
   0   0 -18 46.0349 12.6614   1
   0   0 -18 28.3079 4.66363   2
  -1   0 -18 8.72394 4.84719   2
  -1   0 -18 -11.190 9.16937   1
  -1   0 -18 10.0615 4.38549   3
  -2   0 -18 22.6838 11.4998   1
  -2   0 -18 21.4573 4.57482   2
  -2   0 -18 32.1923 5.18919   3
  -3   0 -18 0.63637 3.71921   3
  -3   0 -18 4.09375 10.6296   1
  -3   0 -18 -0.7693 4.16292   2
  -4   0 -18 3.86555 3.89575   3
  -4   0 -18 1.80518 4.71327   2
  -4   0 -18 4.47614 12.2951   1
  -5   0 -18 6.30002 3.93008   3
  -6   0 -18 46.1194 7.05296   3
  -6   0 -18 45.9518 6.61939   2
  -7   0 -18 107.790 9.83324   2
  12  -1 -18 7.97554 6.74676   3
  12  -1 -18 4.94358 3.39235   2
  12   1 -18 5.04595 3.74924   2
  12   1 -18 1.62257 6.48215   3
  11  -1 -18 -8.9266 6.43278   3
  11  -1 -18 2.53297 3.30898   2
  11   1 -18 -0.6951 6.07448   3
  11   1 -18 -1.7736 3.60401   2
  10  -1 -18 16.2850 4.04651   2
  10  -1 -18 6.94441 6.42721   3
  10   1 -18 9.66397 4.40374   2
  10   1 -18 9.12471 16.5741   1
  10   1 -18 12.9308 5.60756   3
   9  -1 -18 -1.3675 6.48665   3
   9  -1 -18 4.17403 3.91783   2
   9   1 -18 -1.0998 4.78312   3
   9   1 -18 -20.631 12.3751   1
   9   1 -18 6.35667 3.85799   2
   8  -1 -18 0.79770 3.97002   2
   8  -1 -18 4.21988 6.05704   3
  -8  -1  18 3.51552 14.5842   1
   8   1 -18 0.51812 3.79334   2
   8   1 -18 -3.1958 4.68317   3
   8   1 -18 -7.4624 11.9200   1
   7  -1 -18 62.8610 8.04402   3
   7  -1 -18 69.0691 7.57688   2
  -7  -1  18 38.9647 15.5148   1
   7  -1 -18 42.0976 12.8996   1
   7   1 -18 55.4481 6.06603   2
   7   1 -18 70.9628 8.97035   3
   7   1 -18 52.2686 13.8638   1
   6  -1 -18 12.2648 10.0697   1
   6  -1 -18 3.61753 5.97052   3
   6  -1 -18 2.72724 4.02821   2
  -6  -1  18 11.8595 13.1336   1
   6   1 -18 2.60388 9.55177   3
   6   1 -18 -11.063 9.97121   1
   6   1 -18 -4.8290 4.01088   2
  -5  -1  18 63.2497 14.7844   1
   5  -1 -18 37.7593 5.62231   2
   5  -1 -18 18.7299 5.79115   3
   5  -1 -18 21.8247 10.0015   1
   5   1 -18 38.6090 6.86656   3
   5   1 -18 -2.8814 13.8833   1
   5   1 -18 29.7215 5.00266   2
   4  -1 -18 3.99752 5.66066   3
   4  -1 -18 1.66767 4.28413   2
   4  -1 -18 26.2472 10.2312   1
   4   1 -18 -13.940 15.8962   1
   4   1 -18 12.4711 5.24446   3
   4   1 -18 3.99275 4.03687   2
   3  -1 -18 60.6854 7.76102   3
   3  -1 -18 62.7445 6.65540   2
   3  -1 -18 69.6449 13.1041   1
   3   1 -18 49.1980 5.98430   2
   3   1 -18 64.8620 8.04956   3
   2  -1 -18 1.75531 4.15041   2
   2  -1 -18 -7.9166 11.5988   1
   2  -1 -18 3.46669 4.78928   3
   2   1 -18 2.58365 4.53756   2
   2   1 -18 -0.7761 4.32463   3
   2   1 -18 19.0420 13.1556   1
   1  -1 -18 -8.3224 11.0278   1
   1  -1 -18 -2.3705 3.67478   2
   1  -1 -18 0.84748 4.56006   3
   1   1 -18 17.2667 10.1503   1
   1   1 -18 7.89077 4.60137   2
   1   1 -18 -2.6138 4.13906   3
   0  -1 -18 5.33839 18.3486   1
   0  -1 -18 1.50777 5.00928   3
   0  -1 -18 -0.6844 4.41836   2
   0   1 -18 -7.3793 9.68626   1
   0   1 -18 3.19896 4.47636   3
   0   1 -18 -3.2651 10.7633   1
   0   1 -18 6.34766 4.02717   2
  -1  -1 -18 10.6093 4.29498   2
  -1  -1 -18 21.0219 5.89922   3
  -1  -1 -18 11.6280 11.0598   1
  -1   1 -18 23.7688 4.96154   3
  -1   1 -18 -3.7979 11.9670   1
  -1   1 -18 8.81435 12.1038   1
  -1   1 -18 9.76846 5.06561   2
  -2  -1 -18 23.1426 17.5751   1
  -2  -1 -18 3.07371 5.51018   3
  -2  -1 -18 7.57937 4.79265   2
  -2   1 -18 -4.7979 11.9867   1
  -2   1 -18 6.23331 3.99486   3
  -2   1 -18 1.32650 3.85194   2
  -2   1 -18 16.1474 13.2996   1
  -3  -1 -18 6.87099 4.59571   2
  -3  -1 -18 9.63149 5.75026   3
  -3   1 -18 19.6869 12.8221   1
  -3   1 -18 17.2913 4.29164   3
  -3   1 -18 14.8105 11.2459   1
  -3   1 -18 10.3065 4.76297   2
  -4  -1 -18 32.3907 7.87626   2
  -4  -1 -18 46.3566 7.04957   3
  -4   1 -18 31.1946 4.79419   3
  -4   1 -18 18.8816 14.6984   1
  -4   1 -18 37.9654 13.0211   1
  -5  -1 -18 8.48939 5.42520   3
  -5  -1 -18 -0.1042 6.07050   2
  -5   1 -18 10.3873 3.88232   3
  -5   1 -18 7.01685 5.17137   2
  -5   1 -18 4.67388 14.0073   1
  -6  -1 -18 2.00287 4.77317   3
  -6  -1 -18 2.48436 4.05213   2
  -6   1 -18 -22.452 20.6146   1
  -6   1 -18 0.77897 3.30838   3
  -6   1 -18 -5.1663 4.02402   2
  10  -2 -18 -4.3527 3.34940   2
  10  -2 -18 8.99737 6.57379   3
  10   2 -18 2.99088 3.98079   2
  10   2 -18 -4.0028 4.88491   3
   9  -2 -18 -2.5319 6.43503   3
   9  -2 -18 1.76285 3.61704   2
   9   2 -18 -0.3251 4.18545   2
   9   2 -18 -7.7124 4.53007   3
   9   2 -18 -7.7565 11.7486   1
   8  -2 -18 -5.3313 5.88437   3
   8  -2 -18 -2.5863 3.81724   2
   8   2 -18 -1.8141 13.6222   1
   8   2 -18 -0.1632 3.62880   2
   8   2 -18 1.19773 4.83435   3
   7  -2 -18 7.75843 4.13777   2
   7  -2 -18 5.63782 6.69293   3
   7   2 -18 -12.350 11.0266   1
   7   2 -18 6.71251 5.10585   3
   7   2 -18 5.64788 4.19817   2
   6  -2 -18 4.87903 5.89606   3
   6  -2 -18 0.20035 4.28321   2
  -6  -2  18 14.6881 15.4161   1
   6   2 -18 3.39295 4.70940   2
   6   2 -18 -1.3540 12.5863   1
   5  -2 -18 9.38847 4.76633   2
  -5  -2  18 8.31268 13.8229   1
   5  -2 -18 3.92551 6.90919   3
   5   2 -18 8.08363 4.98468   2
   5   2 -18 6.78497 11.4758   1
   5   2 -18 4.65829 4.83840   3
  -4  -2  18 3.78892 13.6516   1
   4  -2 -18 3.94427 4.42826   2
   4  -2 -18 -2.9477 5.50597   3
   4   2 -18 1.29481 4.40052   2
   4   2 -18 -7.7850 11.0028   1
   4   2 -18 -3.4855 3.82220   3
   3  -2 -18 6.74138 5.63571   3
  -3  -2  18 41.2360 25.6738   1
   3  -2 -18 -2.1409 4.38261   2
   3   2 -18 3.60154 4.08584   3
   3   2 -18 -3.1319 13.0417   1
   3   2 -18 9.21025 4.81977   2
   2  -2 -18 2.52272 4.44629   2
   2  -2 -18 9.63486 6.62145   3
   2   2 -18 -4.6064 12.6653   1
   2   2 -18 10.6305 4.11933   3
   2   2 -18 5.38422 4.65837   2
   1  -2 -18 27.6837 5.04368   2
   1  -2 -18 33.8365 7.36342   3
   1   2 -18 18.5828 4.71830   2
   1   2 -18 22.4115 4.40063   3
   1   2 -18 14.3980 12.0060   1
   0  -2 -18 11.1434 5.07354   2
   0  -2 -18 5.07851 5.99807   3
   0   2 -18 18.2039 6.35925   2
   0   2 -18 -15.474 11.9021   1
   0   2 -18 13.5938 3.94565   3
  -1  -2 -18 28.3510 5.83560   2
  -1  -2 -18 28.9683 6.58128   3
  -1   2 -18 35.7165 7.64159   2
  -1   2 -18 20.3869 15.6132   1
  -1   2 -18 39.9402 4.70277   3
  -2  -2 -18 1.91156 5.13320   2
  -2  -2 -18 5.31874 5.90500   3
  -2   2 -18 0.28883 5.75996   2
  -2   2 -18 9.60783 14.6405   1
  -2   2 -18 2.60444 3.20025   3
  -2   2 -18 6.40602 13.6114   1
  -3  -2 -18 21.0196 6.08278   3
  -3  -2 -18 29.4849 6.84244   2
  -3   2 -18 26.3409 3.86531   3
  -3   2 -18 -0.4527 19.5202   1
  -3   2 -18 14.6923 4.54795   2
  -3   2 -18 26.9449 15.3286   1
  -4  -2 -18 3.67559 5.22413   2
  -4  -2 -18 7.78290 5.54991   3
  -4   2 -18 4.82792 2.86011   3
  -4   2 -18 4.43774 4.49377   2
  -4   2 -18 16.8194 22.2620   1
   9   0 -19 -1.1775 3.41376   2
   9   0 -19 3.25734 5.59665   3
   8   0 -19 5.18190 5.81873   3
   8   0 -19 -3.6511 3.61219   2
   7   0 -19 -0.9056 3.85427   2
   7   0 -19 2.36625 6.21772   3
   6   0 -19 2.22383 4.46917   2
   6   0 -19 1.91299 5.54662   3
   5   0 -19 0.98343 5.16307   3
   5   0 -19 -1.7723 4.02256   2
   4   0 -19 1.51337 4.69053   3
   4   0 -19 -3.3307 4.03837   2
   3   0 -19 -3.0926 4.21698   2
   3   0 -19 -2.7434 4.69336   3
   2   0 -19 -3.3909 4.49247   3
   2   0 -19 5.69769 4.64365   2
   1   0 -19 -4.6342 4.48930   3
   1   0 -19 -3.4005 3.67560   2
   0   0 -19 -1.7067 4.62429   3
  -1   0 -19 0.68081 5.38759   2
  -1   0 -19 -5.8097 4.14271   3
  -2   0 -19 1.07794 4.23681   3
  -2   0 -19 1.92092 4.82764   2
  -3   0 -19 4.46481 4.34013   2
  -3   0 -19 -5.9309 3.63840   3
   8  -1 -19 -2.8908 6.11067   3
   8  -1 -19 0.28224 3.86296   2
   8   1 -19 -1.9130 3.58387   2
   8   1 -19 5.03130 5.61359   3
   7  -1 -19 -3.6588 4.10385   2
   7  -1 -19 -2.3845 5.72863   3
   7   1 -19 -3.6864 5.06336   3
   7   1 -19 -2.1003 4.35625   2
   6  -1 -19 16.2798 6.69195   3
   6  -1 -19 15.1172 4.59106   2
   6   1 -19 11.3707 5.77689   3
   6   1 -19 19.7670 4.87813   2
   5  -1 -19 0.13771 5.71332   3
   5  -1 -19 0.15266 3.64460   2
   5   1 -19 0.22570 3.88246   2
   5   1 -19 0.90335 5.08124   3
   4  -1 -19 1.93743 4.96235   3
   4  -1 -19 2.43054 3.76111   2
   4   1 -19 -0.9560 3.70759   2
   4   1 -19 6.34839 5.13130   3
   3  -1 -19 9.51396 4.34255   2
   3  -1 -19 0.25590 5.05372   3
   3   1 -19 4.15742 4.62581   2
   3   1 -19 -0.7827 4.74844   3
   2  -1 -19 -5.5363 4.86216   3
   2  -1 -19 0.09367 4.57070   2
   2   1 -19 2.89939 5.31155   3
   1  -1 -19 17.1080 6.27807   2
   1  -1 -19 10.1439 5.95562   3
   0  -1 -19 -0.2977 5.21035   2
   0  -1 -19 -1.9676 5.26834   3
   0   1 -19 -3.0519 7.52402   3
   0   1 -19 7.17564 6.65623   2
  -1  -1 -19 2.75895 5.35813   3
  -1  -1 -19 1.78459 4.99253   2
  -1   1 -19 -3.8074 4.03424   3
  -1   1 -19 0.71554 4.79688   2
  -2  -1 -19 0.91677 4.67649   2
  -2   1 -19 9.21051 4.49316   2
   0   0   0    0.00    0.00   0

 _exptl_absorpt_process_details
)
 SADABS 2016/2: Krause, L., Herbst-Irmer, R., Sheldrick G.M. & Stalke D.,
 J. Appl. Cryst. 48 (2015) 3-10
)
 _exptl_absorpt_correction_type   multi-scan
 _exptl_absorpt_correction_T_max  0.7465
 _exptl_absorpt_correction_T_min  0.6280
 _exptl_special_details
)
 The following wavelength and cell were deduced by SADABS from the
 direction cosines etc. They are given here for emergency use only:
 CELL 0.71102   16.604    4.651   12.772   90.020   97.563   90.018
)

;
_shelx_hkl_checksum              46541
loop_
_space_group_symop_operation_xyz
'x, y, z'
'-x, y+1/2, -z+1/2'
'-x, -y, -z'
'x, -y-1/2, z-1/2'
loop_
_atom_site_label
_atom_site_type_symbol
_atom_site_fract_x
_atom_site_fract_y
_atom_site_fract_z
_atom_site_U_iso_or_equiv
_atom_site_adp_type
_atom_site_occupancy
_atom_site_site_symmetry_order
_atom_site_calc_flag
_atom_site_refinement_flags_posn
_atom_site_refinement_flags_adp
_atom_site_refinement_flags_occupancy
_atom_site_disorder_assembly
_atom_site_disorder_group
N1 N 0.26109(5) 0.3786(2) 0.14758(7) 0.0444(2) Uani 1 1 d . . . . .
N2 N 0.27874(4) 0.56816(17) 0.07210(6) 0.03408(17) Uani 1 1 d . . . . .
C1 C 0.48304(5) 0.9045(2) 0.04013(7) 0.0366(2) Uani 1 1 d . . . . .
H1A H 0.491516 0.999101 0.110271 0.044 Uiso 1 1 calc R U . . .
H1B H 0.513098 0.719866 0.045881 0.044 Uiso 1 1 calc R U . . .
C2 C 0.39254(5) 0.8446(2) 0.00966(7) 0.0361(2) Uani 1 1 d . . . . .
H2A H 0.362431 1.029043 0.006884 0.043 Uiso 1 1 calc R U . . .
H2B H 0.383985 0.758811 -0.062000 0.043 Uiso 1 1 calc R U . . .
C3 C 0.35848(5) 0.64649(19) 0.08492(7) 0.03367(19) Uani 1 1 d . . . . .
C4 C 0.39408(6) 0.5040(2) 0.17396(7) 0.0421(2) Uani 1 1 d . . . . .
H4 H 0.449401 0.512854 0.204844 0.050 Uiso 1 1 calc R U . . .
C5 C 0.33160(7) 0.3438(2) 0.20916(8) 0.0470(2) Uani 1 1 d . . . . .
H5 H 0.338670 0.223980 0.270022 0.056 Uiso 1 1 calc R U . . .
C6 C 0.21744(5) 0.65964(19) -0.01221(6) 0.03232(18) Uani 0.585(11) 1 d D U P A 1
H6 H 0.225933 0.868536 -0.026151 0.039 Uiso 0.585(11) 1 calc R U P A 1
C7 C 0.1309(2) 0.6186(12) 0.0119(3) 0.0433(8) Uani 0.585(11) 1 d D U P A 1
H7A H 0.122070 0.733510 0.074769 0.052 Uiso 0.585(11) 1 calc R U P A 1
H7B H 0.121345 0.413481 0.027246 0.052 Uiso 0.585(11) 1 calc R U P A 1
C8 C 0.0718(3) 0.7161(13) -0.0840(4) 0.0508(11) Uani 0.585(11) 1 d D U P A 1
H8A H 0.015647 0.662192 -0.073664 0.061 Uiso 0.585(11) 1 calc R U P A 1
H8B H 0.074103 0.928270 -0.090302 0.061 Uiso 0.585(11) 1 calc R U P A 1
C9 C 0.0929(3) 0.5788(13) -0.1858(4) 0.0498(8) Uani 0.585(11) 1 d D U P A 1
H9A H 0.079263 0.371304 -0.186125 0.060 Uiso 0.585(11) 1 calc R U P A 1
H9B H 0.059930 0.669527 -0.247404 0.060 Uiso 0.585(11) 1 calc R U P A 1
C10 C 0.1822(2) 0.6149(11) -0.1953(3) 0.0457(7) Uani 0.585(11) 1 d D U P A 1
H10A H 0.195170 0.513654 -0.259304 0.055 Uiso 0.585(11) 1 calc R U P A 1
H10B H 0.194660 0.821745 -0.202867 0.055 Uiso 0.585(11) 1 calc R U P A 1
O1 O 0.2317(2) 0.5005(11) -0.1033(3) 0.0390(6) Uani 0.585(11) 1 d D U P A 1
C6B C 0.21744(5) 0.65964(19) -0.01221(6) 0.03232(18) Uani 0.415(11) 1 d D . P A
2
H6B H 0.235769 0.844175 -0.041795 0.039 Uiso 0.415(11) 1 calc R U P A 2
C7B C 0.1360(4) 0.7090(16) 0.0237(5) 0.0492(13) Uani 0.415(11) 1 d D . P A 2
H7C H 0.140194 0.862245 0.078065 0.059 Uiso 0.415(11) 1 calc R U P A 2
H7D H 0.117126 0.530498 0.055172 0.059 Uiso 0.415(11) 1 calc R U P A 2
C8B C 0.0755(5) 0.7985(16) -0.0723(6) 0.0480(13) Uani 0.415(11) 1 d D . P A 2
H8C H 0.020238 0.813105 -0.051305 0.058 Uiso 0.415(11) 1 calc R U P A 2
H8D H 0.090738 0.990132 -0.097374 0.058 Uiso 0.415(11) 1 calc R U P A 2
C9B C 0.0750(4) 0.5820(16) -0.1609(5) 0.0458(11) Uani 0.415(11) 1 d D . P A 2
H9C H 0.051981 0.397436 -0.139817 0.055 Uiso 0.415(11) 1 calc R U P A 2
H9D H 0.040381 0.653544 -0.224795 0.055 Uiso 0.415(11) 1 calc R U P A 2
C10B C 0.1606(4) 0.5352(16) -0.1853(4) 0.0508(12) Uani 0.415(11) 1 d D . P A 2
H10C H 0.160357 0.385598 -0.240569 0.061 Uiso 0.415(11) 1 calc R U P A 2
H10D H 0.181376 0.715848 -0.212993 0.061 Uiso 0.415(11) 1 calc R U P A 2
O1B O 0.2136(4) 0.4469(14) -0.0920(5) 0.0412(10) Uani 0.415(11) 1 d D . P A 2
loop_
_atom_site_aniso_label
_atom_site_aniso_U_11
_atom_site_aniso_U_22
_atom_site_aniso_U_33
_atom_site_aniso_U_23
_atom_site_aniso_U_13
_atom_site_aniso_U_12
N1 0.0466(4) 0.0501(5) 0.0347(4) 0.0132(3) -0.0011(3) -0.0039(4)
N2 0.0347(4) 0.0373(4) 0.0281(3) 0.0046(3) -0.0039(3) -0.0029(3)
C1 0.0339(4) 0.0391(5) 0.0327(4) -0.0001(3) -0.0105(3) -0.0059(3)
C2 0.0334(4) 0.0393(5) 0.0318(4) 0.0026(3) -0.0098(3) -0.0061(3)
C3 0.0349(4) 0.0344(4) 0.0286(4) -0.0008(3) -0.0075(3) -0.0020(3)
C4 0.0438(5) 0.0458(5) 0.0320(4) 0.0039(4) -0.0117(3) -0.0005(4)
C5 0.0533(6) 0.0513(6) 0.0332(4) 0.0115(4) -0.0060(4) 0.0003(4)
C6 0.0309(4) 0.0351(4) 0.0291(4) 0.0028(3) -0.0028(3) -0.0004(3)
C7 0.0288(9) 0.067(2) 0.0339(13) 0.0073(13) 0.0046(8) -0.0035(12)
C8 0.0260(10) 0.076(3) 0.0496(19) 0.0180(18) 0.0009(11) 0.0010(16)
C9 0.0363(17) 0.0683(16) 0.0406(18) 0.0094(14) -0.0098(11) -0.0029(13)
C10 0.0343(13) 0.073(2) 0.0273(9) 0.0039(11) -0.0037(8) 0.0110(11)
O1 0.0346(13) 0.0537(15) 0.0264(9) -0.0036(8) -0.0040(7) 0.0102(9)
C6B 0.0309(4) 0.0351(4) 0.0291(4) 0.0028(3) -0.0028(3) -0.0004(3)
C7B 0.0429(19) 0.063(3) 0.0384(16) -0.0090(19) -0.0069(12) 0.0070(19)
C8B 0.039(2) 0.054(3) 0.0491(19) -0.0047(19) -0.0029(14) 0.0070(18)
C9B 0.038(2) 0.0575(19) 0.037(2) 0.0027(18) -0.0112(15) 0.0052(18)
C10B 0.051(3) 0.071(3) 0.0272(14) -0.0015(16) -0.0057(15) 0.012(2)
O1B 0.040(2) 0.051(2) 0.0297(14) -0.0040(12) -0.0047(13) 0.0133(15)
loop_
_atom_type_symbol
_atom_type_description
_atom_type_scat_dispersion_real
_atom_type_scat_dispersion_imag
_atom_type_scat_source
C C 0.0033 0.0016 'International Tables Vol C Tables 4.2.6.8 and 6.1.1.4'
H H 0.0000 0.0000 'International Tables Vol C Tables 4.2.6.8 and 6.1.1.4'
N N 0.0061 0.0033 'International Tables Vol C Tables 4.2.6.8 and 6.1.1.4'
O O 0.0106 0.0060 'International Tables Vol C Tables 4.2.6.8 and 6.1.1.4'
loop_
_geom_angle_atom_site_label_1
_geom_angle_atom_site_label_2
_geom_angle_atom_site_label_3
_geom_angle
_geom_angle_site_symmetry_1
_geom_angle_site_symmetry_3
_geom_angle_publ_flag
C5 N1 N2 103.99(8) . . ?
C3 N2 N1 112.53(7) . . ?
C3 N2 C6B 126.07(7) . . ?
N1 N2 C6B 121.37(7) . . ?
C3 N2 C6 126.07(7) . . ?
N1 N2 C6 121.37(7) . . ?
C1 C1 C2 111.99(8) 3_675 . ?
C1 C1 H1A 109.2 3_675 . ?
C2 C1 H1A 109.2 . . ?
C1 C1 H1B 109.2 3_675 . ?
C2 C1 H1B 109.2 . . ?
H1A C1 H1B 107.9 . . ?
C3 C2 C1 113.03(7) . . ?
C3 C2 H2A 109.0 . . ?
C1 C2 H2A 109.0 . . ?
C3 C2 H2B 109.0 . . ?
C1 C2 H2B 109.0 . . ?
H2A C2 H2B 107.8 . . ?
N2 C3 C4 105.92(8) . . ?
N2 C3 C2 122.10(7) . . ?
C4 C3 C2 131.97(8) . . ?
C3 C4 C5 105.42(8) . . ?
C3 C4 H4 127.3 . . ?
C5 C4 H4 127.3 . . ?
N1 C5 C4 112.14(9) . . ?
N1 C5 H5 123.9 . . ?
C4 C5 H5 123.9 . . ?
O1 C6 N2 106.21(18) . . ?
O1 C6 C7 111.29(19) . . ?
N2 C6 C7 113.80(17) . . ?
O1 C6 H6 108.5 . . ?
N2 C6 H6 108.5 . . ?
C7 C6 H6 108.5 . . ?
C6 C7 C8 108.8(3) . . ?
C6 C7 H7A 109.9 . . ?
C8 C7 H7A 109.9 . . ?
C6 C7 H7B 109.9 . . ?
C8 C7 H7B 109.9 . . ?
H7A C7 H7B 108.3 . . ?
C9 C8 C7 111.2(4) . . ?
C9 C8 H8A 109.4 . . ?
C7 C8 H8A 109.4 . . ?
C9 C8 H8B 109.4 . . ?
C7 C8 H8B 109.4 . . ?
H8A C8 H8B 108.0 . . ?
C10 C9 C8 110.9(4) . . ?
C10 C9 H9A 109.4 . . ?
C8 C9 H9A 109.4 . . ?
C10 C9 H9B 109.4 . . ?
C8 C9 H9B 109.4 . . ?
H9A C9 H9B 108.0 . . ?
O1 C10 C9 110.6(3) . . ?
O1 C10 H10A 109.5 . . ?
C9 C10 H10A 109.5 . . ?
O1 C10 H10B 109.5 . . ?
C9 C10 H10B 109.5 . . ?
H10A C10 H10B 108.1 . . ?
C6 O1 C10 109.6(3) . . ?
O1B C6B N2 106.9(3) . . ?
O1B C6B C7B 111.7(3) . . ?
N2 C6B C7B 113.0(3) . . ?
O1B C6B H6B 108.3 . . ?
N2 C6B H6B 108.3 . . ?
C7B C6B H6B 108.3 . . ?
C6B C7B C8B 108.5(5) . . ?
C6B C7B H7C 110.0 . . ?
C8B C7B H7C 110.0 . . ?
C6B C7B H7D 110.0 . . ?
C8B C7B H7D 110.0 . . ?
H7C C7B H7D 108.4 . . ?
C9B C8B C7B 110.8(5) . . ?
C9B C8B H8C 109.5 . . ?
C7B C8B H8C 109.5 . . ?
C9B C8B H8D 109.5 . . ?
C7B C8B H8D 109.5 . . ?
H8C C8B H8D 108.1 . . ?
C10B C9B C8B 109.7(6) . . ?
C10B C9B H9C 109.7 . . ?
C8B C9B H9C 109.7 . . ?
C10B C9B H9D 109.7 . . ?
C8B C9B H9D 109.7 . . ?
H9C C9B H9D 108.2 . . ?
O1B C10B C9B 111.0(4) . . ?
O1B C10B H10C 109.4 . . ?
C9B C10B H10C 109.4 . . ?
O1B C10B H10D 109.4 . . ?
C9B C10B H10D 109.4 . . ?
H10C C10B H10D 108.0 . . ?
C6B O1B C10B 111.1(5) . . ?
loop_
_geom_bond_atom_site_label_1
_geom_bond_atom_site_label_2
_geom_bond_distance
_geom_bond_site_symmetry_2
_geom_bond_publ_flag
N1 C5 1.3292(13) . ?
N1 N2 1.3647(11) . ?
N2 C3 1.3598(11) . ?
N2 C6B 1.4426(10) . ?
N2 C6 1.4426(10) . ?
C1 C1 1.5173(19) 3_675 ?
C1 C2 1.5249(12) . ?
C1 H1A 0.9900 . ?
C1 H1B 0.9900 . ?
C2 C3 1.4932(13) . ?
C2 H2A 0.9900 . ?
C2 H2B 0.9900 . ?
C3 C4 1.3782(12) . ?
C4 C5 1.3964(16) . ?
C4 H4 0.9500 . ?
C5 H5 0.9500 . ?
C6 O1 1.423(4) . ?
C6 C7 1.518(4) . ?
C6 H6 1.0000 . ?
C7 C8 1.531(5) . ?
C7 H7A 0.9900 . ?
C7 H7B 0.9900 . ?
C8 C9 1.527(5) . ?
C8 H8A 0.9900 . ?
C8 H8B 0.9900 . ?
C9 C10 1.511(4) . ?
C9 H9A 0.9900 . ?
C9 H9B 0.9900 . ?
C10 O1 1.441(5) . ?
C10 H10A 0.9900 . ?
C10 H10B 0.9900 . ?
C6B O1B 1.414(6) . ?
C6B C7B 1.498(6) . ?
C6B H6B 1.0000 . ?
C7B C8B 1.535(9) . ?
C7B H7C 0.9900 . ?
C7B H7D 0.9900 . ?
C8B C9B 1.512(8) . ?
C8B H8C 0.9900 . ?
C8B H8D 0.9900 . ?
C9B C10B 1.508(6) . ?
C9B H9C 0.9900 . ?
C9B H9D 0.9900 . ?
C10B O1B 1.443(7) . ?
C10B H10C 0.9900 . ?
C10B H10D 0.9900 . ?
loop_
_geom_torsion_atom_site_label_1
_geom_torsion_atom_site_label_2
_geom_torsion_atom_site_label_3
_geom_torsion_atom_site_label_4
_geom_torsion
_geom_torsion_site_symmetry_1
_geom_torsion_site_symmetry_2
_geom_torsion_site_symmetry_3
_geom_torsion_site_symmetry_4
_geom_torsion_publ_flag
C5 N1 N2 C3 1.02(11) . . . . ?
C5 N1 N2 C6B 179.03(9) . . . . ?
C5 N1 N2 C6 179.03(9) . . . . ?
C1 C1 C2 C3 177.46(10) 3_675 . . . ?
N1 N2 C3 C4 -0.88(11) . . . . ?
C6B N2 C3 C4 -178.79(8) . . . . ?
C6 N2 C3 C4 -178.79(8) . . . . ?
N1 N2 C3 C2 177.93(8) . . . . ?
C6B N2 C3 C2 0.03(14) . . . . ?
C6 N2 C3 C2 0.03(14) . . . . ?
C1 C2 C3 N2 179.47(8) . . . . ?
C1 C2 C3 C4 -2.06(15) . . . . ?
N2 C3 C4 C5 0.37(11) . . . . ?
C2 C3 C4 C5 -178.28(10) . . . . ?
N2 N1 C5 C4 -0.76(13) . . . . ?
C3 C4 C5 N1 0.25(13) . . . . ?
C3 N2 C6 O1 75.8(2) . . . . ?
N1 N2 C6 O1 -101.9(2) . . . . ?
C3 N2 C6 C7 -161.4(2) . . . . ?
N1 N2 C6 C7 20.9(3) . . . . ?
O1 C6 C7 C8 -58.7(4) . . . . ?
N2 C6 C7 C8 -178.6(2) . . . . ?
C6 C7 C8 C9 50.3(4) . . . . ?
C7 C8 C9 C10 -49.7(5) . . . . ?
C8 C9 C10 O1 55.5(5) . . . . ?
N2 C6 O1 C10 -169.98(18) . . . . ?
C7 C6 O1 C10 65.7(3) . . . . ?
C9 C10 O1 C6 -63.3(4) . . . . ?
C3 N2 C6B O1B 93.9(3) . . . . ?
N1 N2 C6B O1B -83.8(3) . . . . ?
C3 N2 C6B C7B -142.7(3) . . . . ?
N1 N2 C6B C7B 39.5(3) . . . . ?
O1B C6B C7B C8B -58.1(5) . . . . ?
N2 C6B C7B C8B -178.8(3) . . . . ?
C6B C7B C8B C9B 53.6(7) . . . . ?
C7B C8B C9B C10B -53.1(8) . . . . ?
C8B C9B C10B O1B 56.0(7) . . . . ?
N2 C6B O1B C10B -173.3(3) . . . . ?
C7B C6B O1B C10B 62.5(4) . . . . ?
C9B C10B O1B C6B -60.9(5) . . . . ?
