#------------------------------------------------------------------------------
#$Date: 2022-07-23 05:29:06 +0300 (Sat, 23 Jul 2022) $
#$Revision: 276871 $
#$URL: file:///home/coder/svn-repositories/cod/cif/7/15/87/7158784.cif $
#------------------------------------------------------------------------------
#
# This file is available in the Crystallography Open Database (COD),
# http://www.crystallography.net/
#
# All data on this site have been placed in the public domain by the
# contributors.
#
data_7158784
loop_
_publ_author_name
'Khan, Sardaraz'
'Shah, Babar Hussain'
'Zhao, Can'
'Zhang, Yong Jian'
_publ_section_title
;
 Pd-Catalyzed regio- and stereoselective allylic substitution of
 vinylethylene carbonates with 1,2,4-triazoles
;
_journal_name_full               'Organic &amp; Biomolecular Chemistry'
_journal_paper_doi               10.1039/D2OB01156E
_journal_year                    2022
_chemical_formula_moiety         'C12 H12 Br N3 O'
_chemical_formula_sum            'C12 H12 Br N3 O'
_chemical_formula_weight         294.16
_space_group_crystal_system      monoclinic
_space_group_IT_number           14
_space_group_name_Hall           '-P 2yn'
_space_group_name_H-M_alt        'P 1 21/n 1'
_atom_sites_solution_hydrogens   geom
_audit_creation_method           SHELXL-2018/3
_audit_update_record
;
2020-01-02 deposited with the CCDC.	2022-07-22 downloaded from the CCDC.
;
_cell_angle_alpha                90
_cell_angle_beta                 92.99(2)
_cell_angle_gamma                90
_cell_formula_units_Z            4
_cell_length_a                   4.7996(13)
_cell_length_b                   9.8909(15)
_cell_length_c                   26.029(4)
_cell_measurement_reflns_used    5259
_cell_measurement_temperature    296(2)
_cell_measurement_theta_max      66.20
_cell_measurement_theta_min      3.39
_cell_volume                     1234.0(4)
_computing_structure_refinement  'SHELXL-2018/3 (Sheldrick, 2018)'
_computing_structure_solution    'SHELXT 2014/5 (Sheldrick, 2014)'
_diffrn_ambient_temperature      296(2)
_diffrn_measured_fraction_theta_full 0.999
_diffrn_measured_fraction_theta_max 0.997
_diffrn_measurement_device_type  'Bruker d8 venture'
_diffrn_measurement_method       '\f and \w scans'
_diffrn_radiation_type           CuK\a
_diffrn_radiation_wavelength     1.54178
_diffrn_reflns_av_R_equivalents  0.0443
_diffrn_reflns_av_unetI/netI     0.0250
_diffrn_reflns_Laue_measured_fraction_full 0.999
_diffrn_reflns_Laue_measured_fraction_max 0.997
_diffrn_reflns_limit_h_max       5
_diffrn_reflns_limit_h_min       -5
_diffrn_reflns_limit_k_max       11
_diffrn_reflns_limit_k_min       -11
_diffrn_reflns_limit_l_max       31
_diffrn_reflns_limit_l_min       -30
_diffrn_reflns_number            14924
_diffrn_reflns_point_group_measured_fraction_full 0.999
_diffrn_reflns_point_group_measured_fraction_max 0.997
_diffrn_reflns_theta_full        67.679
_diffrn_reflns_theta_max         68.419
_diffrn_reflns_theta_min         3.400
_exptl_absorpt_coefficient_mu    4.444
_exptl_crystal_colour            colorless
_exptl_crystal_density_diffrn    1.583
_exptl_crystal_description       block
_exptl_crystal_F_000             592
_exptl_crystal_size_max          0.180
_exptl_crystal_size_mid          0.160
_exptl_crystal_size_min          0.150
_exptl_transmission_factor_max   0.7531
_exptl_transmission_factor_min   0.6115
_refine_diff_density_max         0.369
_refine_diff_density_min         -0.577
_refine_diff_density_rms         0.050
_refine_ls_extinction_method     none
_refine_ls_goodness_of_fit_ref   1.025
_refine_ls_hydrogen_treatment    mixed
_refine_ls_matrix_type           full
_refine_ls_number_parameters     156
_refine_ls_number_reflns         2262
_refine_ls_number_restraints     0
_refine_ls_restrained_S_all      1.025
_refine_ls_R_factor_all          0.0652
_refine_ls_R_factor_gt           0.0462
_refine_ls_shift/su_max          0.001
_refine_ls_shift/su_mean         0.000
_refine_ls_structure_factor_coef Fsqd
_refine_ls_weighting_details
'w=1/[\s^2^(Fo^2^)+(0.0547P)^2^+0.8764P] where P=(Fo^2^+2Fc^2^)/3'
_refine_ls_weighting_scheme      calc
_refine_ls_wR_factor_gt          0.1139
_refine_ls_wR_factor_ref         0.1306
_reflns_Friedel_coverage         0.000
_reflns_number_gt                1653
_reflns_number_total             2262
_reflns_threshold_expression     'I > 2\s(I)'
_cod_data_source_file            d2ob01156e2.cif
_cod_data_source_block           t_a
_cod_original_sg_symbol_H-M      'P 21/n'
_cod_database_code               7158784
_shelx_shelxl_version_number     2018/3
_shelx_space_group_comment
;
The symmetry employed for this shelxl refinement is uniquely defined
by the following loop, which should always be used as a source of
symmetry information in preference to the above space-group names.
They are only intended as comments.
;
_shelx_estimated_absorpt_t_min   0.502
_shelx_estimated_absorpt_t_max   0.555
_shelx_res_file
;
TITL t_a.res in P2(1)/n
    t_a.res
    created by SHELXL-2018/3 at 18:59:36 on 27-Dec-2019
REM Old TITL t in P2(1)/n
REM SHELXT solution in P2(1)/n
REM R1 0.247,  Rweak 0.051,  Alpha 0.040,  Orientation as input
REM Formula found by SHELXT:  C12 Br N4
CELL  1.54178   4.7996   9.8909  26.0294   90.000   92.985   90.000
ZERR   4.000   0.0013   0.0015   0.0039    0.000    0.024    0.000
LATT  1
SYMM 1/2-X, 1/2+Y, 1/2-Z
SFAC C H BR N O
UNIT 48 48 4 12 4
TEMP 22.510
L.S. 10
ACTA
SIZE 0.18 0.16 0.15
CONF
BOND $H
LIST 6
FMAP 2
PLAN 20
WGHT    0.054700    0.876400
FVAR       0.66818
BR1   3    0.113197    0.204161    0.462145    11.00000    0.12825    0.14986 =
         0.08021   -0.00824   -0.01346   -0.03622
C1    1    0.332260    0.259565    0.521113    11.00000    0.08205    0.08804 =
         0.06614   -0.00242    0.00608   -0.01969
N1    4    1.101348    0.730451    0.691164    11.00000    0.08176    0.03775 =
         0.07023   -0.00012   -0.00934    0.00360
O1    5    0.903475    0.211398    0.705583    11.00000    0.15331    0.05267 =
         0.07801    0.01442    0.02843    0.02817
AFIX 148
H1    2    0.952512    0.132989    0.701988    11.00000   -1.50000
AFIX   0
N3    4    1.080956    0.948187    0.686556    11.00000    0.09252    0.03898 =
         0.09189    0.00219   -0.00208   -0.00404
C3    1    0.484193    0.433933    0.578766    11.00000    0.07782    0.05433 =
         0.10481    0.00093   -0.01012    0.00364
AFIX  43
H3    2    0.470276    0.523100    0.589676    11.00000   -1.20000
AFIX   0
N2    4    1.290962    0.764044    0.656807    11.00000    0.09432    0.06468 =
         0.09505    0.00553    0.01534    0.01387
C2    1    0.318338    0.390666    0.537469    11.00000    0.08179    0.08036 =
         0.10628    0.01244   -0.01743    0.00088
AFIX  43
H2    2    0.196003    0.450730    0.520541    11.00000   -1.20000
AFIX   0
C5    1    0.674106    0.214790    0.588149    11.00000    0.10825    0.05213 =
         0.07487   -0.00767   -0.00319    0.01001
AFIX  43
H5    2    0.792541    0.153577    0.605408    11.00000   -1.20000
AFIX   0
C4    1    0.671339    0.348467    0.604562    11.00000    0.06477    0.04223 =
         0.06649    0.00276    0.01553   -0.00113
C8    1    0.860088    0.397089    0.647201    11.00000    0.06317    0.03456 =
         0.06603    0.00596    0.00951    0.00372
C7    1    1.051514    0.295404    0.672881    11.00000    0.08281    0.03733 =
         0.09058    0.00170   -0.00595    0.00552
AFIX  23
H7A   2    1.136503    0.240772    0.646998    11.00000   -1.20000
H7B   2    1.199195    0.341744    0.692714    11.00000   -1.20000
AFIX   0
C6    1    0.505648    0.170313    0.546876    11.00000    0.12751    0.06883 =
         0.07557   -0.01451    0.00061   -0.00083
AFIX  43
H6    2    0.510410    0.080222    0.536733    11.00000   -1.20000
AFIX   0
C9    1    0.863903    0.525978    0.661459    11.00000    0.09043    0.03875 =
         0.07900    0.00307   -0.00984    0.00976
AFIX  43
H9    2    0.740998    0.583432    0.643316    11.00000   -1.20000
AFIX   0
C10   1    1.044562    0.588890    0.703570    11.00000    0.12068    0.03662 =
         0.07793    0.00178   -0.01973    0.00256
AFIX  23
H10A  2    0.951551    0.584072    0.735723    11.00000   -1.20000
H10B  2    1.218910    0.539534    0.707748    11.00000   -1.20000
AFIX   0
C11   1    0.978674    0.839550    0.707522    11.00000    0.08268    0.04286 =
         0.07757   -0.00340    0.00166    0.00048
AFIX  43
H11   2    0.838220    0.839893    0.730823    11.00000   -1.20000
AFIX   0
C12   1    1.270710    0.896167    0.655795    11.00000    0.08640    0.06702 =
         0.08880    0.01021    0.00089   -0.00812
AFIX  43
H12   2    1.379211    0.949889    0.635374    11.00000   -1.20000
AFIX   0
HKLF 4




REM  t_a.res in P2(1)/n
REM wR2 = 0.130550, GooF = S = 1.02512, Restrained GooF = 1.02512 for all data
REM R1 = 0.046210 for 1653 Fo > 4sig(Fo) and 0.065159 for all 2262 data
REM 156 parameters refined using 0 restraints

END

WGHT      0.0417      0.9840

REM Highest difference peak  0.369,  deepest hole -0.577,  1-sigma level  0.050
Q1    1   0.2759  0.2014  0.4527  11.00000  0.05    0.37
Q2    1   0.0991  0.1579  0.4875  11.00000  0.05    0.19
Q3    1   0.0794  0.1397  0.4437  11.00000  0.05    0.17
Q4    1   0.7222  0.2346  0.7098  11.00000  0.05    0.16
Q5    1   1.1270  0.3433  0.7373  11.00000  0.05    0.15
Q6    1   0.8409  0.2052  0.7391  11.00000  0.05    0.15
Q7    1   0.7362  0.9318  0.7502  11.00000  0.05    0.15
Q8    1   0.5087  0.4198  0.5472  11.00000  0.05    0.14
Q9    1   0.9380  0.2379  0.7340  11.00000  0.05    0.14
Q10   1   0.9659  0.8483  0.7572  11.00000  0.05    0.14
Q11   1   0.9350  0.3545  0.6567  11.00000  0.05    0.14
Q12   1   0.4669  0.1455  0.4520  11.00000  0.05    0.14
Q13   1   1.0006  0.2811  0.7115  11.00000  0.05    0.13
Q14   1   1.1037  0.5691  0.7389  11.00000  0.05    0.13
Q15   1   1.0108  0.9995  0.6807  11.00000  0.05    0.13
Q16   1   0.0268  0.2685  0.4555  11.00000  0.05    0.13
Q17   1   1.4013  0.5745  0.7522  11.00000  0.05    0.13
Q18   1   0.5484  0.8847  0.7581  11.00000  0.05    0.13
Q19   1   0.3202  0.4962  0.6058  11.00000  0.05    0.13
Q20   1   0.8100  0.6311  0.7414  11.00000  0.05    0.13
;
_shelx_res_checksum              5655
_shelx_hkl_file
;
  -1   0   0   -1.10    0.80
   1   0   0    0.40    0.90
  -1   0   0    0.30    0.70
  -1   0   0    0.20    0.70
  -2   0   0  198.08   10.50
  -2   0   0  184.98    9.30
   2   0   0  181.18    9.50
  -3   0   0   -0.80    1.10
   3   0   0    3.90    2.90
  -3   0   0    3.40    2.80
  -3   0   0    1.60    1.90
  -3   0   0   -0.60    2.30
   3   0   0    2.10    4.30
   4   0   0  106.19   10.00
  -4   0   0  104.39    9.70
  -4   0   0   96.29   10.40
  -4   0   0  100.99   12.50
  -4   0   0  104.69   10.80
  -4   0   0  119.39   11.00
  -5   0   0    3.70    2.60
   5   0   0    0.60    2.50
   0  -1   0    0.10    0.20
   0  -1   0    0.40    0.20
   0  -1   0   -0.10    0.30
   0   1   0    0.20    0.10
   0   1   0    0.10    0.30
   0   1   0    0.20    0.20
   1  -1   0  250.57   10.10
   1  -1   0  270.77    8.90
  -1  -1   0  277.97   10.60
  -1  -1   0  283.57    9.70
  -1   1   0  260.87    9.80
   1   1   0  266.77    9.60
  -1   1   0  284.07    9.60
  -2  -1   0 1047.00   30.90
  -2  -1   0 1033.90   32.60
   2  -1   0 1005.40   30.10
  -2  -1   0  994.30   30.10
  -2   1   0 1006.50   30.90
  -2   1   0 1035.50   31.10
   2   1   0 1001.10   31.10
  -3  -1   0    2.00    2.20
  -3  -1   0   -0.80    2.00
   3  -1   0    4.60    2.60
  -3  -1   0   -0.10    1.40
  -3   1   0   -1.00    2.20
   3   1   0    0.90    2.40
  -3   1   0    2.80    2.00
  -3   1   0   -1.70    1.70
  -3   1   0   -1.40    1.80
  -4  -1   0    0.10    2.70
  -4  -1   0   -0.50    2.50
  -4  -1   0    2.80    2.70
   4  -1   0    6.70    3.00
  -4  -1   0    4.20    2.80
  -4   1   0    1.80    2.60
  -4   1   0    2.80    3.50
  -4   1   0    0.90    2.00
  -4   1   0    5.20    5.20
   4   1   0    2.40    2.10
  -5  -1   0   -1.50    1.60
   5  -1   0    2.40    2.50
  -5  -1   0    0.20    2.80
   5   1   0    3.00    2.20
  -5   1   0    0.30    1.60
  -5   1   0    0.40    3.20
   0  -2   0 9999.00  229.68
   1  -2   0   10.00    1.50
  -1  -2   0    7.40    1.70
  -1  -2   0   12.10    1.80
  -1  -2   0    7.20    2.00
  -1   2   0    9.50    2.20
   1   2   0    7.20    1.50
  -2  -2   0    2.40    2.10
   2  -2   0    3.30    1.20
  -2  -2   0   -0.60    1.00
  -2   2   0   -0.90    1.90
  -2   2   0    0.40    1.20
  -3  -2   0  126.49    9.10
  -3  -2   0  109.89   10.00
  -3  -2   0  132.89   11.10
   3  -2   0  119.29    9.40
  -3  -2   0  120.59    9.50
  -3  -2   0  118.99   11.10
   3   2   0  126.29    8.90
  -3   2   0  120.59    9.50
  -3   2   0  121.19    9.90
  -3   2   0  103.89    9.50
   4  -2   0   38.50    6.80
   4  -2   0   46.40    7.70
  -4  -2   0   40.20    7.00
  -4  -2   0   35.20    6.90
  -4  -2   0   36.80    7.40
  -4  -2   0   40.00    7.00
  -4   2   0   48.20    7.40
  -4   2   0   34.30    5.80
   4   2   0   33.30    6.40
  -4   2   0   40.40    8.20
  -5  -2   0    2.60    2.90
   5  -2   0    3.70    3.30
  -5  -2   0   11.30    3.70
  -5   2   0    5.70    3.40
   5   2   0    2.70    2.90
  -5   2   0    8.50    3.00
   0  -3   0    0.50    0.70
   0  -3   0    0.00    0.50
   0  -3   0   -1.50    1.20
   0   3   0   -0.40    0.40
   0   3   0    1.30    1.10
  -1  -3   0  494.45   16.30
   1  -3   0  489.85   13.90
  -1  -3   0  499.75   17.80
  -1  -3   0  468.65   17.90
  -1   3   0  473.75   14.20
  -1   3   0  477.05   17.10
   1   3   0  499.15   16.20
   2  -3   0  618.04   20.20
  -2  -3   0  622.74   24.50
  -2  -3   0  623.84   22.70
  -2  -3   0  594.64   21.80
   2   3   0  617.14   21.80
  -2   3   0  632.34   23.40
  -2   3   0  607.84   22.50
   3  -3   0  241.58   14.20
  -3  -3   0  236.18   16.30
  -3  -3   0  232.28   13.20
  -3  -3   0  236.88   13.80
   3  -3   0  243.98   16.20
  -3  -3   0  258.57   15.90
  -3  -3   0  240.28   15.80
  -3   3   0  238.28   14.10
   3   3   0  237.38   13.00
  -3   3   0  242.98   15.80
  -3   3   0  247.88   15.70
  -3   3   0  243.08   14.80
  -4  -3   0    8.90    5.10
   4  -3   0   16.50    5.00
  -4  -3   0    4.50    4.00
  -4  -3   0   11.80    4.50
  -4  -3   0    9.50    4.20
   4  -3   0   11.40    4.00
  -4   3   0   18.50    4.70
  -4   3   0   24.80    5.50
  -4   3   0   12.70    4.70
  -4   3   0   11.50    3.60
  -5  -3   0    0.60    1.60
  -5   3   0    1.90    2.10
   5   3   0    2.80    2.10
   0  -4   0  674.93   18.80
   0  -4   0  654.23   20.00
   0   4   0  649.43   21.30
   1  -4   0  668.13   18.00
   1  -4   0  675.93   18.30
  -1  -4   0  699.43   21.90
  -1  -4   0  693.03   23.50
  -1   4   0  682.33   23.60
  -1   4   0  651.83   17.90
   1   4   0  641.94   21.30
  -2  -4   0   43.20    5.60
   2  -4   0   44.10    4.50
  -2  -4   0   51.49    6.60
  -2  -4   0   42.00    5.40
   2   4   0   48.40    5.30
  -2   4   0   45.90    4.40
  -2   4   0   40.90    5.30
  -2   4   0   41.10    5.70
  -3  -4   0  119.19   11.50
  -3  -4   0   94.39    9.80
   3  -4   0  105.69    9.00
  -3  -4   0  109.39    9.50
  -3  -4   0   96.59   10.90
   3  -4   0  108.59   11.50
  -3  -4   0  104.09    9.60
  -3   4   0  107.09   10.80
  -3   4   0  101.89    9.50
  -3   4   0  103.79    8.60
  -3   4   0  111.59   10.90
   3   4   0  107.79    8.90
  -3   4   0  109.19    9.80
  -4  -4   0   10.00    4.10
  -4  -4   0    4.90    3.70
  -4  -4   0    5.60    3.80
   4  -4   0   11.10    4.60
   4  -4   0    8.40    4.20
  -4   4   0   20.00    5.80
  -4   4   0    7.30    3.70
  -4   4   0   11.40    4.10
  -4   4   0    8.40    3.30
  -5  -4   0    0.70    2.60
  -5  -4   0    0.60    2.20
  -5   4   0   -1.10    1.20
  -5   4   0   -0.30    3.50
   5   4   0    1.60    2.20
   0  -5   0   -0.80    1.40
   0  -5   0    0.20    0.90
   0   5   0    0.20    1.20
   0   5   0    0.40    1.50
  -1  -5   0  292.07   12.90
   1  -5   0  278.17    8.40
  -1  -5   0  274.17   13.80
   1  -5   0  283.27    8.30
  -1   5   0  277.77   13.30
  -1   5   0  291.77   14.60
   1   5   0  270.37   13.20
   2  -5   0   70.19    8.20
  -2  -5   0   81.19    7.80
  -2  -5   0   93.39    9.50
  -2  -5   0   85.79    8.30
  -2  -5   0   98.29    9.50
   2  -5   0   86.69    9.50
  -2  -5   0   67.09    8.50
  -2   5   0   87.29    7.80
  -2   5   0   78.19    7.90
   2   5   0   82.39    7.40
  -2   5   0   84.79    5.60
  -2   5   0   91.19    8.80
  -3  -5   0   48.20    8.30
   3  -5   0   29.90    6.60
  -3  -5   0   42.80    6.90
  -3  -5   0   33.40    6.70
   3  -5   0   43.90    6.80
  -3   5   0   37.30    6.40
  -3   5   0   34.00    7.00
  -3   5   0   33.40    7.70
   3   5   0   41.00    6.10
  -3   5   0   50.69    6.90
  -3   5   0   38.30    6.20
  -4  -5   0    1.20    1.90
   4  -5   0   -3.00    3.40
   4  -5   0   -3.20    2.90
  -4  -5   0    1.10    4.60
  -4  -5   0    7.90    3.60
  -4   5   0   -1.30    1.60
  -4   5   0    6.80    2.70
  -4   5   0    6.40    4.30
   5  -5   0   -2.20    1.00
  -5  -5   0    2.40    1.90
  -5  -5   0    0.50    1.70
   5   5   0    0.30    1.90
  -5   5   0    3.10    1.80
   0  -6   0  222.28   10.30
   0  -6   0  225.38    9.10
   0   6   0  229.48   12.50
   0   6   0  235.88   12.30
  -1  -6   0    7.00    2.70
   1  -6   0    8.40    3.20
   1  -6   0    6.30    3.40
  -1  -6   0   10.50    3.70
  -1  -6   0    5.80    3.30
  -1  -6   0    6.10    3.20
   1   6   0    6.30    2.70
   1   6   0    1.20    3.10
  -1   6   0    7.50    2.70
  -1   6   0    7.80    2.70
   2  -6   0   -1.30    2.70
   2  -6   0    4.50    3.20
  -2  -6   0    1.40    2.50
  -2  -6   0    4.10    3.00
   2  -6   0    3.90    2.40
  -2  -6   0    3.30    3.50
  -2   6   0    0.50    2.10
  -2   6   0    4.30    2.70
  -2   6   0   -2.90    2.30
   2   6   0    0.00    1.80
  -3  -6   0   -3.30    2.10
   3  -6   0    1.00    3.20
  -3  -6   0    4.30    3.00
  -3  -6   0    4.00    3.20
   3  -6   0   -0.70    2.20
  -3   6   0    4.40    2.50
   3   6   0   -1.50    2.70
  -3   6   0   -0.40    2.20
  -4  -6   0    0.80    2.10
  -4  -6   0   -1.30    3.90
   4  -6   0   -3.40    2.00
  -4  -6   0   -1.40    1.80
  -4   6   0   -0.70    2.40
  -4   6   0    4.10    2.70
   0  -7   0   -0.30    2.90
   0  -7   0    0.30    2.20
   0   7   0   -1.10    1.60
   0   7   0   -1.10    1.50
  -1  -7   0   11.20    4.30
   1  -7   0   15.00    4.00
  -1  -7   0   17.80    4.70
   1  -7   0   13.80    3.80
  -1  -7   0   12.30    4.30
   1   7   0   12.20    3.90
   1   7   0   10.20    3.20
  -1   7   0   17.20    4.00
  -1   7   0   17.90    4.60
  -1   7   0   15.90    4.30
  -2  -7   0  188.88   15.40
  -2  -7   0  201.88   14.40
   2  -7   0  187.18   16.50
   2  -7   0  173.68   13.40
  -2  -7   0  181.58   13.90
   2  -7   0  183.38   12.60
  -2   7   0  191.98   13.80
  -2   7   0  181.78   14.70
  -2   7   0  183.38   12.50
   2   7   0  198.88   12.70
   3  -7   0   -1.00    2.40
  -3  -7   0    0.40    2.00
  -3  -7   0    2.40    3.80
  -3  -7   0    3.80    3.00
   3  -7   0   -0.40    1.90
   3  -7   0    1.30    4.20
  -3   7   0   -2.70    2.00
  -3   7   0   -1.10    1.80
   4  -7   0    2.10    1.70
  -4  -7   0    0.40    2.20
  -4  -7   0    0.80    1.90
  -4   7   0    2.50    1.90
  -4   7   0   -1.80    2.20
   0  -8   0   57.49    7.80
   0  -8   0   55.49    7.90
   0   8   0   62.49    7.20
   0   8   0   55.39    7.80
  -1  -8   0    5.10    3.10
   1  -8   0    7.10    3.70
  -1  -8   0    2.20    2.80
   1  -8   0    4.60    2.50
  -1   8   0    2.40    2.70
   1   8   0    9.20    3.30
  -1   8   0    2.10    2.50
   1   8   0    5.50    2.60
   2  -8   0   39.10    7.60
  -2  -8   0   44.90    7.00
   2  -8   0   37.70    6.60
  -2  -8   0   24.20    7.30
  -2  -8   0   40.90    8.00
  -2   8   0   40.30    6.20
   2   8   0   42.40    6.90
  -2   8   0   32.30    6.00
  -3  -8   0   37.10    6.10
  -3  -8   0   34.50    8.20
   3  -8   0   51.19    7.10
  -3  -8   0   46.90    7.50
  -3   8   0   38.50    5.40
  -3   8   0   44.60    6.40
  -4  -8   0    1.40    1.70
  -4   8   0    2.00    1.30
   0  -9   0    1.50    3.00
   0  -9   0    3.50    3.40
   0   9   0   -3.10    1.70
   0   9   0    1.10    2.10
  -1  -9   0   49.80    7.70
   1  -9   0   58.89    7.70
  -1  -9   0   52.89    7.90
   1  -9   0   51.39    8.30
   1   9   0   57.69    7.00
  -1   9   0   44.50    6.90
   1   9   0   60.09    7.80
  -1   9   0   58.09    6.80
  -2  -9   0   -0.40    2.30
   2  -9   0    2.90    2.40
  -2   9   0   -2.60    1.70
   2   9   0    0.80    2.80
  -2   9   0   -2.20    1.20
  -3  -9   0    6.50    3.50
   3  -9   0    2.50    1.90
  -3  -9   0    3.90    2.40
  -3   9   0    6.40    3.20
  -3   9   0    5.90    2.20
   0 -10   0    7.10    3.30
   0  10   0    6.60    2.70
   0  10   0    4.30    2.70
  -1 -10   0    7.50    3.30
   1 -10   0    9.30    3.30
  -1  10   0   13.90    4.00
   1  10   0   12.10    3.70
  -1  10   0   10.20    3.30
   2 -10   0    2.20    2.00
  -2 -10   0   -1.50    1.50
  -2  10   0    4.30    2.50
  -2  10   0    5.10    2.10
  -3 -10   0    1.60    1.60
  -3  10   0    2.90    1.70
   0 -11   0    0.40    1.50
   0  11   0   -4.30    3.50
   0  11   0   -0.40    1.10
  -1 -11   0   10.30    2.90
   1 -11   0    8.00    2.50
  -1  11   0   -0.80    4.00
  -1  11   0   10.10    3.00
   2 -11   0   -0.10    1.30
  -2 -11   0    1.60    1.50
  -2  11   0    1.60    1.60
  -5   0   1   12.40    3.80
   5   0  -1    8.20    3.20
  -5   0   1   14.10    3.90
   4   0  -1    2.60    2.60
  -4   0   1    8.00    6.20
  -4   0   1   -1.00    2.10
  -3   0   1   90.59    8.00
   3   0  -1   91.99    8.80
  -3   0   1   86.59    7.80
   3   0  -1   86.89    7.40
  -3   0   1   83.69    8.50
  -3   0   1   85.39    8.70
  -2   0   1    1.10    1.30
   2   0  -1    1.30    1.30
  -2   0   1    1.80    1.10
  -1   0   1 1524.65   38.00
   1   0  -1 1527.25   38.10
  -1   0   1 1445.16   37.60
  -1   0   1 1541.45   39.20
  -1   0  -1 1971.30   48.10
  -1   0  -1 1834.52   46.70
   1   0   1 1883.71   46.80
  -2   0  -1    1.10    1.40
  -2   0  -1    9.00    2.50
  -2   0  -1    1.20    1.00
   2   0   1    1.00    1.20
  -3   0  -1    0.50    2.20
  -3   0  -1    3.40    2.50
  -3   0  -1    7.30    2.80
  -4   0  -1   -4.10    2.60
   4   0   1    2.10    2.30
  -4   0  -1    0.50    5.10
  -4   0  -1   -0.60    2.40
  -4   0  -1    0.80    2.70
  -4   0  -1    1.10    2.30
   5   0   1  123.49    8.90
  -5   0  -1  123.49   10.60
  -5   0  -1  103.79    9.90
   5  -1  -1    0.80    2.10
  -5  -1   1   -1.90    1.60
  -5  -1   1    1.20    2.20
   5   1  -1   -0.30    2.00
  -5   1   1   -0.20    1.80
  -5   1   1    7.00    3.00
  -4  -1   1    2.70    2.80
  -4  -1   1    1.70    2.60
   4  -1  -1    1.90    2.10
  -4  -1   1    8.60    3.60
  -4  -1   1   -0.40    2.20
  -4   1   1    1.40    2.50
   4   1  -1    4.60    3.20
  -4   1   1   -4.30    2.70
  -4   1   1    4.10    3.10
  -4   1   1    4.60    5.90
  -3  -1   1  343.67   16.30
   3  -1  -1  344.37   15.00
  -3  -1   1  346.77   18.60
  -3  -1   1  332.27   15.60
  -3  -1   1  316.67   17.20
   3  -1  -1  326.97   16.80
  -3   1   1  366.06   18.00
   3   1  -1  329.07   15.10
  -3   1   1  334.97   16.30
  -3   1   1  329.97   17.40
  -3   1   1  351.76   17.10
  -2  -1   1   18.40    3.20
   2  -1  -1   21.00    3.30
  -2  -1   1   19.20    3.60
  -2  -1   1   16.00    2.70
  -2   1   1   23.80    3.50
   2   1  -1   24.00    3.80
  -2   1   1   20.10    3.20
   1  -1  -1 2322.77   60.19
   1  -1  -1 2388.36   58.89
  -1  -1   1 2438.86   59.59
  -1  -1   1 2553.34   61.19
   1   1  -1 2372.86   59.59
  -1   1   1 2411.56   59.79
  -1   1   1 2494.85   59.89
   0  -1  -1   10.10    1.20
   0  -1   1   10.10    0.60
   0  -1  -1    9.10    0.90
   0  -1   1    8.80    1.00
   0  -1  -1    9.10    0.90
   0   1  -1    9.70    0.60
   0   1   1   10.00    0.80
   0   1  -1   10.40    1.00
   0   1   1   10.20    1.10
   1  -1   1    6.00    1.30
  -1  -1  -1    5.80    1.60
   1  -1   1    5.20    1.70
  -1  -1  -1    7.10    1.60
  -1   1  -1    8.70    2.00
  -1   1  -1    3.50    1.30
   1   1   1    5.10    1.40
  -2  -1  -1    1.30    1.20
  -2  -1  -1    6.20    2.00
  -2  -1  -1    5.40    2.20
   2  -1   1   -1.00    1.10
  -2   1  -1    4.00    1.80
  -2   1  -1    1.50    1.20
  -3  -1  -1  334.97   16.50
  -3  -1  -1  337.87   16.60
  -3  -1  -1  312.27   17.40
  -3  -1  -1  328.87   18.40
  -3   1  -1  336.47   16.60
  -3   1  -1  332.07   17.40
  -3   1  -1  331.67   17.10
   3   1   1  337.17   14.60
  -3   1  -1  322.57   17.20
  -4  -1  -1    2.70    3.40
  -4  -1  -1    3.30    3.40
  -4  -1  -1   11.60    6.60
  -4  -1  -1    5.30    3.10
   4  -1   1    1.30    2.40
  -4  -1  -1    2.90    3.30
  -4   1  -1    4.40    2.70
  -4   1  -1   -1.50    3.80
   4   1   1    1.40    2.40
  -4   1  -1   -4.80    5.10
  -4   1  -1    5.00    2.60
   5  -1   1    1.60    2.90
  -5  -1  -1    0.10    1.40
  -5  -1  -1    4.50    2.80
  -5   1  -1   -1.60    2.70
  -5   1  -1   -0.60    1.80
   5   1   1    4.40    2.50
  -5   1  -1    7.40    4.30
  -5  -2   1   11.20    3.30
   5  -2  -1   15.80    3.50
  -5  -2   1   12.70    4.00
  -5   2   1    7.80    3.20
   5   2  -1   15.20    3.60
  -5   2   1   10.80    3.50
   4  -2  -1   -0.70    2.30
  -4  -2   1   -0.10    3.70
  -4  -2   1   -1.50    2.10
  -4  -2   1    3.00    2.80
  -4  -2   1    3.00    3.30
   4   2  -1   -0.10    2.30
  -4   2   1   -2.70    2.20
  -4   2   1    2.60    2.90
  -4   2   1    3.10    3.70
  -3  -2   1    3.80    3.10
  -3  -2   1    0.90    2.40
  -3  -2   1    5.00    2.10
   3  -2  -1    6.30    2.70
  -3  -2   1    4.60    2.60
   3   2  -1    3.50    2.60
  -3   2   1    7.10    2.70
  -3   2   1    3.80    2.40
  -3   2   1   -1.00    2.00
  -2  -2   1  502.05   20.40
   2  -2  -1  507.85   17.90
  -2  -2   1  495.45   18.80
  -2   2   1  524.85   19.30
  -2   2   1  473.95   20.00
  -1  -2   1 1037.40   29.10
  -1  -2   1  965.40   26.10
  -1  -2   1 1047.00   27.80
   1   2  -1  987.50   27.50
  -1   2   1 1006.00   28.40
   0  -2  -1 1361.96   32.30
   0  -2   1 1305.47   34.20
   0  -2  -1 1306.27   34.70
   0  -2   1 1373.56   32.30
   0  -2  -1 1411.76   33.30
   0   2   1 1324.47   34.30
   0   2  -1 1312.07   32.20
   0   2  -1 1328.67   34.00
   0   2   1 1395.86   32.10
   0   2   1 1318.97   33.20
  -1  -2  -1 1462.05   38.40
  -1  -2  -1 1362.76   36.00
  -1  -2  -1 1293.57   36.30
   1  -2   1 1406.76   34.20
   1   2   1 1414.36   36.70
  -1   2  -1 1363.86   37.40
   2  -2   1 1004.70   29.70
  -2  -2  -1 1023.10   31.80
  -2  -2  -1 1043.90   34.00
  -2   2  -1 1054.29   32.80
  -2   2  -1  992.20   34.30
  -2   2  -1 1028.50   30.50
  -3  -2  -1   40.30    6.60
  -3  -2  -1   47.30    6.40
  -3  -2  -1   64.99    7.00
  -3  -2  -1   42.70    7.50
   3  -2   1   55.09    6.20
  -3  -2  -1   54.29    7.70
  -3  -2  -1   48.20    6.10
  -3   2  -1   57.89    6.90
   3   2   1   48.50    6.20
  -3   2  -1   58.89    7.20
  -3   2  -1   51.79    6.60
  -4  -2  -1    3.10    3.30
   4  -2   1    0.10    3.90
  -4  -2  -1    0.10    2.50
  -4  -2  -1    5.60    2.70
   4  -2   1    8.10    3.00
  -4  -2  -1    0.60    3.00
  -4   2  -1    1.90    2.50
   4   2   1    8.10    3.20
  -4   2  -1    6.20    2.90
  -4   2  -1   -0.70    2.80
  -5  -2  -1    0.60    1.90
  -5  -2  -1    0.90    2.70
   5   2   1    1.00    2.10
  -5   2  -1   -1.00    3.70
  -5   2  -1    5.40    3.80
  -5   2  -1    5.70    2.70
  -5  -3   1   -0.90    2.20
  -5   3   1    2.80    1.70
   5   3  -1    1.10    2.10
  -5   3   1   -0.80    2.20
   4  -3  -1   30.70    7.30
  -4  -3   1   28.70    7.10
  -4  -3   1   39.30    7.00
  -4  -3   1   32.30    6.70
   4  -3  -1   36.70    6.20
  -4   3   1   32.80    7.10
  -4   3   1   21.80    5.00
  -4   3   1   31.50    6.70
  -4   3   1   34.80    6.40
  -3  -3   1   31.40    6.80
  -3  -3   1   33.60    6.20
  -3  -3   1   33.90    6.40
   3  -3  -1   40.90    6.10
  -3  -3   1   40.10    5.20
  -3  -3   1   33.10    6.10
   3  -3  -1   32.40    6.30
  -3   3   1   47.90    7.70
  -3   3   1   39.40    6.30
  -3   3   1   26.80    5.60
   3   3  -1   33.10    5.40
  -3   3   1   33.90    5.50
   2  -3  -1  388.76   14.60
  -2  -3   1  355.26   15.90
  -2  -3   1  385.26   18.00
  -2   3   1  376.26   16.60
  -2   3   1  373.36   15.80
   2   3  -1  366.86   15.60
  -1  -3   1    5.40    1.50
  -1  -3   1    4.40    1.30
  -1  -3   1    9.00    2.30
   1   3  -1    9.50    1.90
  -1   3   1    6.90    2.00
  -1   3   1    6.30    1.30
   0  -3  -1 2959.60   69.59
   0  -3   1 2984.80   68.59
   0  -3  -1 2826.02   67.59
   0  -3   1 2935.11   69.59
   0  -3   1 2657.93   71.49
   0   3   1 2946.31   71.69
   0   3  -1 2822.22   70.99
   0   3  -1 2932.71   68.49
  -1  -3  -1 1128.69   31.10
   1  -3   1 1091.69   27.30
  -1  -3  -1 1101.09   32.60
  -1   3  -1 1099.09   32.00
   1   3   1 1052.99   30.60
  -2  -3  -1  985.10   32.20
   2  -3   1  987.90   28.50
  -2  -3  -1  964.40   31.40
  -2  -3  -1  993.80   34.30
  -2   3  -1  968.30   31.60
  -2   3  -1 1041.10   33.30
   2   3   1  997.40   30.80
   3  -3   1  340.97   19.80
  -3  -3  -1  356.06   17.50
  -3  -3  -1  349.17   20.40
   3  -3   1  343.37   17.10
  -3  -3  -1  358.76   17.70
  -3  -3  -1  362.06   19.80
  -3  -3  -1  355.56   19.30
  -3   3  -1  360.86   19.50
  -3   3  -1  348.07   18.10
   3   3   1  339.27   15.70
  -3   3  -1  337.97   17.70
  -4  -3  -1    0.70    3.50
   4  -3   1    0.40    2.70
  -4  -3  -1    4.00    3.80
  -4  -3  -1    5.80    3.80
  -4  -3  -1    5.30    3.40
   4  -3   1   -0.30    2.60
  -4   3  -1    6.50    4.20
  -4   3  -1    2.80    2.70
  -4   3  -1   -2.20    3.10
  -4   3  -1    3.20    2.90
   4   3   1   -0.60    2.20
  -5  -3  -1    5.40    2.40
  -5  -3  -1    2.50    2.60
  -5   3  -1   -0.30    1.70
   5   3   1    5.00    2.50
  -5   3  -1    1.00    3.00
  -5   3  -1    3.00    3.60
  -5  -4   1    0.20    1.90
  -5  -4   1    1.90    1.80
  -5   4   1    0.10    1.40
  -5   4   1    4.60    3.00
   5   4  -1    3.90    2.60
  -4  -4   1    5.00    4.40
   4  -4  -1    3.40    3.50
  -4  -4   1    0.00    3.10
  -4  -4   1    6.10    4.00
   4  -4  -1    5.30    3.50
  -4   4   1    4.20    2.80
  -4   4   1    1.90    2.90
  -4   4   1    3.20    3.00
  -4   4   1   12.90    5.00
  -3  -4   1    7.10    4.30
  -3  -4   1    6.80    3.50
  -3  -4   1   10.20    3.50
   3  -4  -1    5.60    3.00
   3  -4  -1    5.30    3.30
  -3  -4   1    3.00    2.50
  -3   4   1   10.20    3.70
  -3   4   1    2.70    2.80
   3   4  -1    6.90    2.80
  -3   4   1    6.90    2.70
  -3   4   1    4.50    3.70
   2  -4  -1  542.35   18.80
  -2  -4   1  561.74   22.00
  -2  -4   1  567.84   23.90
  -2  -4   1  530.95   20.40
  -2   4   1  547.05   19.00
  -2   4   1  532.55   21.30
  -2   4   1  573.44   23.00
   2   4  -1  556.24   21.10
  -1  -4   1  629.24   21.70
  -1  -4   1  646.94   20.40
   1  -4  -1  627.14   17.60
  -1   4   1  623.74   22.20
  -1   4   1  592.94   17.10
   1   4  -1  606.34   20.10
   0  -4   1    1.70    0.80
   0  -4  -1    1.90    1.30
   0  -4  -1    3.20    1.10
   0   4   1    3.70    1.70
   0   4  -1    1.20    1.20
   1  -4   1  149.49    4.80
  -1  -4  -1  147.19    9.20
   1  -4   1  154.08    4.70
  -1  -4  -1  148.99    8.30
  -1   4  -1  145.89    5.30
  -1   4  -1  154.38    9.10
   1   4   1  137.19    7.70
  -2  -4  -1  384.46   19.90
  -2  -4  -1  430.16   19.10
  -2  -4  -1  433.16   18.20
   2  -4   1  434.46   14.30
  -2   4  -1  439.26   18.30
  -2   4  -1  457.55   20.00
   2   4   1  451.55   18.00
  -2   4  -1  437.96   16.10
  -3  -4  -1    4.10    3.00
   3  -4   1   -0.40    2.50
  -3  -4  -1    3.50    2.90
   3  -4   1    1.30    2.70
  -3  -4  -1   -4.30    3.10
  -3  -4  -1   -1.00    2.40
  -3   4  -1    1.40    2.70
  -3   4  -1   -2.70    4.20
   3   4   1    3.20    2.60
  -3   4  -1    2.90    2.00
  -3   4  -1    1.90    2.80
  -3   4  -1    0.40    1.70
  -4  -4  -1    1.50    2.30
  -4  -4  -1   -0.90    2.90
   4  -4   1    0.40    3.70
   4  -4   1   -4.30    2.60
  -4  -4  -1    2.70    3.10
  -4   4  -1    0.90    2.60
  -4   4  -1   -9.70    4.70
  -4   4  -1   -2.00    2.10
  -5  -4  -1   -0.20    1.40
  -5  -4  -1   -1.00    2.00
  -5   4  -1    1.90    1.60
  -5   4  -1    3.00    4.30
   5   4   1   -2.10    2.00
   5  -5  -1    4.80    2.00
  -5  -5   1    4.40    2.20
  -5  -5   1    4.90    2.40
  -5   5   1    5.90    1.90
   5   5  -1    5.60    2.50
  -4  -5   1   29.70    7.40
  -4  -5   1   35.50    7.10
   4  -5  -1   43.10    7.80
  -4  -5   1   41.90    7.60
   4  -5  -1   49.80    6.90
  -4   5   1   32.40    6.10
  -4   5   1   41.10    6.60
  -4   5   1   43.80    6.30
   3  -5  -1   -1.00    2.80
  -3  -5   1    6.70    3.50
  -3  -5   1    7.60    3.50
  -3  -5   1   -1.40    1.70
   3  -5  -1    8.90    3.30
  -3   5   1   -1.90    3.40
  -3   5   1    1.40    2.60
  -3   5   1    0.50    3.80
  -3   5   1    2.00    3.80
  -3   5   1    4.90    3.10
   3   5  -1    1.90    2.70
  -2  -5   1  141.89   11.10
  -2  -5   1  143.09   11.70
   2  -5  -1  103.19    9.50
  -2  -5   1  107.29    9.80
  -2  -5   1  124.49   10.40
   2  -5  -1  141.19   11.90
   2   5  -1  131.59    9.70
  -2   5   1  119.59    7.10
  -2   5   1  117.99    9.80
  -2   5   1  124.09    9.40
  -2   5   1  127.89   10.60
  -1  -5   1   50.49    5.00
   1  -5  -1   54.39    3.50
  -1  -5   1   50.79    2.60
  -1  -5   1   51.79    5.80
  -1   5   1   48.00    5.40
   1   5  -1   50.69    5.30
   1   5  -1   42.50    4.70
  -1   5   1   58.19    6.00
   0  -5  -1 2043.70   50.49
   0  -5  -1 1977.80   52.29
   0  -5   1 1944.41   48.60
   0  -5   1 1904.31   49.99
   0   5   1 1929.61   53.09
   0   5   1 1973.50   53.99
   0   5  -1 1932.51   52.99
   0   5  -1 1927.11   53.29
  -1  -5  -1   35.20    4.50
  -1  -5  -1   48.30    5.60
  -1   5  -1   32.80    4.70
  -1   5  -1   32.90    4.80
   1   5   1   41.10    4.80
  -2  -5  -1  212.98   14.70
  -2  -5  -1  243.18   14.50
   2  -5   1  233.38   16.00
  -2  -5  -1  245.08   15.30
  -2  -5  -1  238.08   12.80
  -2  -5  -1  222.48   15.40
  -2   5  -1  218.88    9.50
   2   5   1  220.08   12.40
  -2   5  -1  228.28   13.30
  -2   5  -1  224.38   13.50
  -2   5  -1  225.78   14.50
   3  -5   1   17.30    5.00
  -3  -5  -1   18.10    4.90
  -3  -5  -1   12.40    3.80
  -3  -5  -1   17.00    5.10
  -3  -5  -1   10.70    4.40
   3  -5   1   14.20    3.50
  -3   5  -1   17.60    6.30
  -3   5  -1   14.40    4.20
  -3   5  -1   13.60    4.00
   3   5   1   12.30    4.00
  -3   5  -1    9.50    5.30
  -4  -5  -1   17.10    6.80
  -4  -5  -1    8.40    3.50
   4  -5   1    4.10    3.10
  -4  -5  -1    6.40    3.10
  -4   5  -1   12.50    3.90
  -4   5  -1    9.40    5.10
  -4   5  -1   12.40    3.80
   5  -5   1    5.70    2.10
  -5  -5  -1    7.30    2.60
   5   5   1   -0.10    2.20
  -5   5  -1    4.00    1.90
  -4  -6   1    4.80    2.90
   4  -6  -1    3.40    3.40
  -4  -6   1    9.10    3.60
  -4  -6   1    0.70    4.10
  -4   6   1    1.90    2.20
  -4   6   1    3.00    2.40
   3  -6  -1   34.40    6.20
  -3  -6   1   28.90    6.50
  -3  -6   1   30.60    6.60
   3  -6  -1   32.80    7.40
  -3  -6   1   35.40    7.50
   3   6  -1   24.90    6.00
  -3   6   1   40.10    6.20
  -3   6   1   30.70    5.70
  -2  -6   1  227.68   15.40
  -2  -6   1  244.88   15.30
   2  -6  -1  258.67   18.10
  -2  -6   1  240.18   16.40
   2  -6  -1  226.78   14.00
  -2  -6   1  234.58   15.60
   2  -6  -1  252.47   16.40
  -2   6   1  232.08   14.00
   2   6  -1  237.68   14.20
  -2   6   1  258.87   16.40
  -2   6   1  240.68   14.90
   1  -6  -1  217.58   16.00
   1  -6  -1  199.38   13.10
  -1  -6   1  212.58   11.10
   1  -6  -1  207.18   15.20
  -1  -6   1  217.28   14.00
  -1  -6   1  219.58   12.30
   1   6  -1  175.68   12.80
  -1   6   1  206.08   11.70
  -1   6   1  207.28   13.10
  -1   6   1  217.78   12.90
   1   6  -1  220.58   12.40
   0  -6  -1   45.40    5.00
   0  -6  -1   47.20    4.20
   0  -6   1   44.40    3.30
   0   6  -1   43.80    5.30
   0   6  -1   46.70    5.50
   0   6   1   52.29    5.70
   0   6   1   49.00    5.80
   1  -6   1  184.98   12.00
  -1  -6  -1  181.08   10.80
  -1  -6  -1  165.88   12.20
  -1  -6  -1  178.48   11.50
  -1  -6  -1  192.88   11.40
  -1  -6  -1  163.78   12.70
   1  -6   1  173.38   13.60
   1   6   1  175.28   10.90
  -1   6  -1  182.08   11.00
  -1   6  -1  170.08   11.80
   1   6   1  182.18   12.40
  -1   6  -1  183.88   12.20
   2  -6   1   14.60    4.40
   2  -6   1   18.00    4.90
   2  -6   1   24.50    5.40
  -2  -6  -1   12.00    4.00
  -2  -6  -1   19.20    5.40
  -2  -6  -1   17.80    4.80
  -2  -6  -1   19.60    5.90
  -2   6  -1   11.50    3.70
  -2   6  -1   18.90    4.20
   2   6   1   27.80    4.60
  -2   6  -1   11.30    3.90
   3  -6   1    8.80    3.90
  -3  -6  -1   15.00    4.60
   3  -6   1   21.40    5.10
  -3  -6  -1   17.20    5.30
  -3   6  -1   11.00    3.90
   3   6   1   11.10    4.20
  -3   6  -1    9.70    3.40
   4  -6   1    4.00    2.50
   4  -6   1    2.70    3.10
  -4  -6  -1    0.60    4.70
  -4  -6  -1    4.00    2.60
  -4  -6  -1    3.40    2.30
  -4   6  -1    4.40    2.80
  -4   6  -1    2.40    2.20
  -4  -7   1   24.50    5.40
  -4  -7   1   20.50    4.80
   4  -7  -1   25.90    4.70
  -4   7   1   31.70    6.00
  -4   7   1   27.20    4.60
  -3  -7   1    2.80    3.60
  -3  -7   1   -0.20    2.60
   3  -7  -1    9.00    3.60
  -3  -7   1    7.30    5.20
   3  -7  -1    0.30    2.00
  -3   7   1    0.00    2.40
   3   7  -1    6.90    3.50
  -3   7   1    4.70    2.90
   2  -7  -1   91.29    9.40
   2  -7  -1   90.69   10.80
   2  -7  -1   90.99    8.90
  -2  -7   1   99.39   11.00
  -2  -7   1   74.39    9.00
  -2  -7   1   83.19    9.70
  -2   7   1   93.99    9.70
   2   7  -1   81.39    8.30
  -2   7   1   85.59   10.30
  -2   7   1   89.19    8.30
  -1  -7   1  132.79   10.70
   1  -7  -1  148.19   11.20
  -1  -7   1  144.39   12.00
   1  -7  -1  146.99   11.60
   1   7  -1  141.99   10.50
  -1   7   1  145.59   10.30
   1   7  -1  146.19   11.50
  -1   7   1  138.69   10.90
  -1   7   1  132.49   11.40
   0  -7   1  169.68   11.70
   0  -7  -1  158.78   11.70
   0  -7   1  157.78   11.50
   0  -7  -1  172.28   12.30
   0   7  -1  167.08   11.50
   0   7  -1  171.78   11.30
   0   7   1  167.98   10.90
   0   7   1  163.98   11.40
   0   7  -1  162.68   11.30
  -1  -7  -1   -4.60    6.50
   1  -7   1    2.90    2.20
  -1  -7  -1    5.20    3.80
   1  -7   1    2.50    3.40
   1  -7   1    8.30    3.40
  -1  -7  -1    0.80    3.30
  -1  -7  -1   -2.90    2.10
   1   7   1    2.30    2.50
  -1   7  -1    2.50    3.00
  -1   7  -1    4.10    2.60
  -1   7  -1    2.50    2.00
  -2  -7  -1   -1.10    3.00
   2  -7   1    1.90    2.00
  -2  -7  -1    0.60    2.70
   2  -7   1   -2.70    3.90
   2  -7   1    0.80    2.80
  -2  -7  -1    0.40    3.30
   2   7   1    2.30    2.60
  -2   7  -1    0.60    1.90
  -2   7  -1    4.90    4.00
  -3  -7  -1    4.40    3.20
   3  -7   1    8.70    4.10
  -3  -7  -1    7.80    3.30
  -3  -7  -1    6.60    4.50
   3  -7   1    9.60    3.30
  -3   7  -1    7.90    3.40
  -3   7  -1    4.10    2.80
  -4  -7  -1    8.70    2.90
  -4  -7  -1    3.50    2.40
   4  -7   1    2.40    1.90
  -4   7  -1    4.70    2.00
  -4   7  -1    0.20    2.30
  -4  -8   1    2.70    1.90
   4  -8  -1    4.80    1.90
  -4   8   1    1.90    1.50
  -3  -8   1    6.90    3.50
  -3  -8   1   10.70    3.40
  -3  -8   1   14.70    8.30
   3  -8  -1    5.50    3.10
   3   8  -1    5.90    4.30
  -3   8   1   10.20    3.10
  -3   8   1    5.80    2.80
   2  -8  -1   36.60    6.60
   2  -8  -1   40.30    6.80
  -2  -8   1   32.00    6.60
  -2  -8   1   30.30    6.20
   2   8  -1   28.10    5.60
  -2   8   1   24.80    5.10
  -2   8   1   34.50    5.80
   1  -8  -1   -0.60    2.90
   1  -8  -1   -2.60    1.60
  -1  -8   1    0.50    2.30
  -1  -8   1   -2.20    2.90
  -1   8   1    0.10    2.20
  -1   8   1    1.10    1.70
   1   8  -1   -0.50    1.60
   1   8  -1   -1.20    2.00
   0  -8  -1   32.00    5.80
   0  -8   1   32.60    6.10
   0  -8  -1   30.50    5.80
   0  -8   1   23.60    5.60
   0   8  -1   25.80    5.10
   0   8   1   28.10    5.90
   0   8  -1   29.40    5.80
   0   8   1   26.30    5.00
  -1  -8  -1   12.70    4.50
  -1  -8  -1   10.20    3.40
   1  -8   1   16.40    4.40
   1  -8   1    9.10    3.20
  -1   8  -1   17.70    4.40
   1   8   1   10.40    3.60
  -1   8  -1   18.60    4.30
   1   8   1   17.40    4.50
  -2  -8  -1  240.68   17.30
  -2  -8  -1  227.18   15.50
   2  -8   1  238.48   15.80
  -2  -8  -1  215.08   16.30
  -2   8  -1  242.38   15.50
   2   8   1  225.08   13.90
  -2   8  -1  243.58   14.60
   3  -8   1   46.40    6.60
  -3  -8  -1   56.19    7.10
  -3  -8  -1   55.19    8.30
  -3  -8  -1   38.60    9.50
  -3   8  -1   51.59    6.90
  -3   8  -1   47.60    6.00
  -4  -8  -1    2.70    1.90
  -4  -8  -1   -0.10    2.30
   4  -8   1   -0.60    1.30
  -4   8  -1   -1.30    1.30
  -3  -9   1    3.60    2.30
   3  -9  -1    4.20    1.90
  -3   9   1    5.80    2.30
  -3   9   1    3.20    3.10
  -2  -9   1   10.20    3.80
  -2  -9   1   10.40    4.10
   2  -9  -1   10.80    3.30
   2   9  -1    9.00    3.10
  -2   9   1   12.10    3.30
  -2   9   1   10.50    3.20
  -1  -9   1   -1.30    2.00
   1  -9  -1    2.20    2.50
   1  -9  -1    0.70    3.20
   1   9  -1    1.40    2.30
   1   9  -1    6.00    3.10
  -1   9   1    0.50    1.70
  -1   9   1    4.40    2.20
   0  -9  -1    1.30    3.40
   0  -9   1    1.00    1.80
   0  -9   1   -3.00    3.50
   0   9   1    2.00    2.40
   0   9  -1   -0.80    2.00
   0   9  -1    1.10    2.40
   0   9   1    4.60    2.20
  -1  -9  -1   25.10    5.80
   1  -9   1   28.30    5.70
  -1  -9  -1   26.50    6.00
  -1   9  -1   31.40    6.00
   1   9   1   28.10    5.20
   1   9   1   35.50    6.40
  -1   9  -1   29.30    5.70
  -2  -9  -1    3.60    3.10
   2  -9   1    6.70    3.00
  -2   9  -1   10.40    3.60
   2   9   1    6.80    3.90
  -2   9  -1    7.30    2.50
  -3  -9  -1    2.90    2.60
  -3  -9  -1    3.60    2.70
   3  -9   1    3.20    1.70
  -3   9  -1    1.10    1.70
  -3   9  -1    0.50    2.40
   3 -10  -1    4.50    1.70
  -3 -10   1    2.20    1.60
  -3  10   1    3.90    1.70
   2 -10  -1    2.00    1.50
  -2 -10   1    0.40    1.80
  -2  10   1   -0.80    2.70
  -1 -10   1    1.00    2.00
   1 -10  -1    4.90    2.50
  -1  10   1    3.00    2.30
  -1  10   1    0.70    1.70
   1  10  -1   -0.90    2.20
   0 -10   1   13.30    4.00
   0 -10  -1   25.70    5.50
   0  10  -1   20.20    4.80
   0  10   1   15.30    4.20
   0  10   1   21.40    4.70
   0  10  -1   13.90    4.00
  -1 -10  -1   33.70    6.20
   1 -10   1   36.30    5.80
  -1 -10  -1   28.80    5.80
   1  10   1   35.40    5.90
  -1  10  -1   32.40    5.70
  -1  10  -1   27.80    4.70
   2 -10   1    4.30    2.10
  -2 -10  -1    2.10    1.70
  -2  10  -1    4.10    2.60
  -2  10  -1    2.10    1.60
  -3 -10  -1    1.50    1.80
   3 -10   1   -0.60    1.20
  -3  10  -1    2.50    1.50
   2 -11  -1    0.60    1.30
  -2 -11   1    1.00    1.40
  -2  11   1    3.40    1.50
   1 -11  -1   17.10    3.80
  -1 -11   1   23.20    4.20
  -1  11   1   15.90    3.50
   0 -11   1    0.30    1.60
   0 -11  -1   -2.00    1.10
   0  11  -1   -1.40    1.50
   0  11   1    1.80    1.80
   1 -11   1   49.80    5.60
  -1 -11  -1   45.70    5.70
  -1  11  -1   37.50    5.90
  -1  11  -1   41.90    5.10
   2 -11   1    2.60    1.70
  -2 -11  -1    3.30    1.50
  -2  11  -1   -0.40    1.30
   5   0  -2    0.20    2.10
  -5   0   2   -1.50    1.90
  -5   0   2    1.40    2.00
  -4   0   2   19.90    4.90
  -4   0   2   12.30    3.90
  -4   0   2   28.00    5.60
   4   0  -2   16.30    4.70
  -3   0   2    5.00    2.40
   3   0  -2    1.40    2.10
  -3   0   2   -0.60    2.30
  -3   0   2    0.90    1.80
   2   0  -2 1014.30   31.30
  -2   0   2 1039.30   30.00
  -2   0   2 1056.99   32.40
  -1   0   2    0.00    0.90
  -1   0   2   -0.40    0.60
   1   0  -2    0.10    0.70
   0   0   2  813.12   20.40
   0   0  -2  835.82   20.50
  -1   0  -2    0.10    0.90
   1   0   2    1.90    0.70
  -1   0  -2    0.60    0.70
   2   0   2  195.38    9.70
  -2   0  -2  192.68    9.40
  -2   0  -2  193.58   10.20
  -2   0  -2  188.68   10.50
  -3   0  -2   -4.10    2.30
  -3   0  -2    4.30    2.20
  -3   0  -2    1.00    1.90
  -3   0  -2   -0.30    1.80
  -4   0  -2   73.49    9.10
  -4   0  -2   68.79    8.30
  -4   0  -2   65.99    9.50
  -4   0  -2   58.69   11.20
   4   0   2   71.89    7.90
  -4   0  -2   61.69    8.40
  -5   0  -2    2.20    2.30
  -5   0  -2   -0.70    2.50
   5   0   2   -2.60    3.10
  -5   0  -2   12.10    3.90
   5  -1  -2    3.10    2.60
  -5  -1   2    4.20    2.40
  -5  -1   2    4.60    2.70
  -5   1   2    5.10    3.10
  -5   1   2    0.80    2.10
   5   1  -2    0.60    1.90
  -4  -1   2   32.70    6.60
  -4  -1   2   23.00    5.70
  -4  -1   2   21.00    5.30
   4  -1  -2   19.40    5.20
  -4  -1   2   28.40    6.10
  -4   1   2   19.70    6.80
  -4   1   2   24.10    5.70
  -4   1   2   31.80    5.60
  -4   1   2   26.10    6.00
  -4   1   2   22.20    5.30
   4   1  -2   36.00    6.60
   3  -1  -2   94.69    7.80
  -3  -1   2   96.69    7.70
  -3  -1   2  101.59    9.60
  -3  -1   2   97.49    9.10
  -3  -1   2  102.69    8.30
   3  -1  -2   98.29    9.00
  -3   1   2  107.59    8.60
  -3   1   2  110.39    8.80
   3   1  -2  102.99    8.10
  -3   1   2   93.59    8.60
  -3   1   2   97.29    9.00
   2  -1  -2 1556.94   43.70
  -2  -1   2 1538.85   41.70
  -2  -1   2 1606.24   45.90
  -2   1   2 1598.54   43.60
  -2   1   2 1619.04   44.60
   2   1  -2 1505.85   44.20
  -1  -1   2 1136.39   30.40
   1  -1  -2 1062.59   29.40
  -1  -1   2 1111.09   29.10
   1   1  -2 1098.19   29.20
  -1   1   2 1079.89   29.10
   0  -1   2  122.39    4.30
   0  -1  -2  116.69    4.50
   0  -1  -2  131.19    4.90
   0  -1   2  127.99    3.90
   0   1   2  130.09    4.80
   0   1  -2  131.99    3.60
   0   1  -2  133.59    3.90
   0   1   2  127.29    4.40
   0   1  -2  133.29    4.40
  -1  -1  -2    3.10    1.20
  -1  -1  -2    3.50    1.50
   1  -1   2    4.00    0.90
   1   1   2    1.50    0.90
  -1   1  -2    4.20    1.20
  -1   1  -2    2.20    0.80
  -1   1  -2    2.50    1.20
   2  -1   2 1784.62   48.30
  -2  -1  -2 1834.02   51.69
  -2  -1  -2 1843.62   49.60
  -2   1  -2 1803.02   49.50
  -2   1  -2 1820.62   50.49
   2   1   2 1758.92   49.60
  -3  -1  -2   42.20    6.00
  -3  -1  -2   48.90    7.00
  -3  -1  -2   39.90    6.60
  -3  -1  -2   49.80    6.30
  -3   1  -2   48.80    6.40
  -3   1  -2   46.70    6.00
  -3   1  -2   50.79    6.60
  -3   1  -2   46.60    6.20
  -4  -1  -2   46.70    9.40
  -4  -1  -2   65.49    7.90
   4  -1   2   62.29    9.50
   4  -1   2   62.89    7.30
  -4  -1  -2   55.29    9.00
  -4  -1  -2   54.59    9.00
  -4  -1  -2   61.69    8.50
   4   1   2   50.49    8.60
   4   1   2   61.89    7.80
  -4   1  -2   57.59    9.70
  -4   1  -2   58.79    8.10
  -4   1  -2   64.39    8.20
  -5  -1  -2    4.30    3.60
  -5  -1  -2    0.90    1.90
  -5   1  -2    0.80    3.30
  -5   1  -2   10.70    4.20
   5   1   2    7.20    3.10
  -5   1  -2    2.50    2.50
   5  -2  -2    7.00    2.70
  -5  -2   2    5.90    2.80
  -5  -2   2    4.00    2.10
  -5   2   2    6.80    2.70
   5   2  -2    9.20    3.10
  -5   2   2    9.20    3.40
   4  -2  -2   68.49    8.20
  -4  -2   2   65.19    8.70
  -4  -2   2   55.09    7.80
  -4  -2   2   78.19   10.00
   4  -2  -2   56.69    9.90
  -4   2   2   63.69    8.40
  -4   2   2   65.89    7.70
   4   2  -2   62.59    8.40
  -4   2   2   63.19    8.30
  -4   2   2   62.19    9.00
  -3  -2   2   68.69    7.80
   3  -2  -2   52.59    6.30
  -3  -2   2   61.29    7.90
  -3  -2   2   63.79    6.00
  -3  -2   2   55.69    6.90
   3  -2  -2   47.00    6.40
  -3  -2   2   61.19    7.40
  -3   2   2   51.49    6.80
  -3   2   2   55.39    6.50
  -3   2   2   55.19    6.80
   3   2  -2   54.49    6.40
  -2  -2   2   35.90    5.00
  -2  -2   2   35.20    3.40
   2  -2  -2   36.70    4.20
  -2  -2   2   31.80    4.20
   2   2  -2   34.90    4.40
  -2   2   2   34.00    4.30
  -1  -2   2  834.92   24.30
  -1  -2   2  806.92   22.80
  -1  -2   2  786.32   20.90
  -1   2   2  783.72   23.40
  -1   2   2  796.82   22.20
   1   2  -2  792.72   22.70
   0  -2   2 2213.58   55.19
   0  -2   2 2323.27   52.99
   0  -2  -2 2318.77   54.69
   0  -2  -2 2178.48   56.09
   0   2  -2 2248.97   52.89
   0   2   2 2264.57   55.79
   0   2   2 2334.47   53.89
   0   2   2 2191.78   54.79
   0   2  -2 2272.37   54.89
   1  -2   2   61.99    3.00
  -1  -2  -2   69.29    5.30
  -1  -2  -2   61.99    4.40
  -1   2  -2   58.89    4.60
   1   2   2   62.39    4.30
  -2  -2  -2   13.50    3.10
  -2  -2  -2   15.70    3.30
   2  -2   2   12.40    2.40
  -2  -2  -2   11.20    3.00
  -2   2  -2   13.50    2.70
  -2   2  -2   19.50    3.60
  -2   2  -2    8.50    3.40
  -3  -2  -2   45.80    6.50
   3  -2   2   39.80    6.00
  -3  -2  -2   43.70    5.80
  -3  -2  -2   45.20    6.90
  -3  -2  -2   48.60    6.40
  -3  -2  -2   22.00    8.00
   3  -2   2   37.00    7.30
  -3  -2  -2   32.30    6.20
  -3   2  -2   39.20    5.80
  -3   2  -2   43.50    6.10
  -3   2  -2   43.30    6.10
  -3   2  -2   53.89    6.60
   3   2   2   37.30    5.80
   4  -2   2   38.90    7.60
  -4  -2  -2   31.30    6.70
  -4  -2  -2   33.80    6.40
  -4  -2  -2   19.40    5.90
   4  -2   2   27.40    5.40
  -4  -2  -2   25.50    5.70
  -4   2  -2   29.00    5.40
  -4   2  -2   25.30    5.90
   4   2   2   35.80    6.40
  -4   2  -2   35.80    6.20
   4   2   2   22.80    5.20
  -5  -2  -2    1.80    1.70
  -5  -2  -2    0.90    2.50
  -5   2  -2    1.20    3.80
  -5   2  -2   -0.90    1.30
   5   2   2    6.60    2.70
  -5   2  -2    3.20    3.20
   5  -3  -2    8.10    3.50
  -5  -3   2    4.30    2.30
  -5  -3   2   10.00    3.10
   5   3  -2    3.30    2.40
  -5   3   2    7.20    2.70
  -5   3   2    8.90    2.70
   4  -3  -2   -1.30    2.20
  -4  -3   2    0.00    2.40
   4  -3  -2   -3.90    3.00
  -4  -3   2    0.70    2.90
  -4  -3   2    0.60    3.10
  -4  -3   2   -3.10    2.20
   4   3  -2   -6.30    4.60
  -4   3   2   -0.90    2.90
  -4   3   2    0.60    2.70
  -4   3   2    2.20    2.50
  -4   3   2   -1.60    2.50
  -3  -3   2  572.24   27.00
  -3  -3   2  559.84   21.90
  -3  -3   2  555.94   25.70
   3  -3  -2  528.05   26.00
  -3  -3   2  572.24   21.00
  -3  -3   2  567.44   25.20
   3  -3  -2  566.84   24.10
  -3   3   2  571.44   24.80
   3   3  -2  591.34   23.30
  -3   3   2  594.94   24.00
  -3   3   2  598.64   25.70
  -3   3   2  591.64   23.80
  -3   3   2  579.84   25.50
  -2  -3   2  329.27   14.80
  -2  -3   2  337.67   16.40
   2  -3  -2  332.37   13.90
   2   3  -2  344.47   14.70
  -2   3   2  320.77   15.20
  -2   3   2  344.67   14.10
  -2   3   2  329.87   14.70
  -1  -3   2   39.90    4.10
  -1  -3   2   42.60    3.60
  -1  -3   2   41.90    3.40
  -1   3   2   39.90    3.00
  -1   3   2   47.00    4.50
   1   3  -2   37.40    3.40
   0  -3   2   76.89    3.20
   0  -3  -2   77.09    4.30
   0  -3   2   72.99    5.00
   0   3   2   80.79    3.50
   0   3  -2   81.09    3.20
   0   3  -2   83.59    5.00
   0   3   2   77.99    5.20
   1  -3   2 1048.00   26.40
  -1  -3  -2 1142.69   33.60
   1  -3   2 1109.59   26.60
  -1  -3  -2 1139.89   31.70
   1   3   2 1102.79   31.30
  -1   3  -2 1095.59   32.30
  -2  -3  -2  337.77   17.10
   2  -3   2  336.87   12.30
  -2  -3  -2  333.47   15.40
  -2  -3  -2  352.16   15.90
  -2   3  -2  357.36   16.40
  -2   3  -2  345.17   15.30
   2   3   2  333.57   14.40
  -3  -3  -2    8.50    3.80
  -3  -3  -2    7.80    3.50
   3  -3   2    7.60    3.50
  -3  -3  -2    4.40    2.40
   3  -3   2    0.10    3.10
   3   3   2    8.50    3.80
  -3   3  -2   10.30    3.00
  -3   3  -2    4.10    2.60
  -3   3  -2    9.40    4.10
  -4  -3  -2   42.10    6.80
  -4  -3  -2   17.80    5.30
   4  -3   2   28.40    6.20
  -4  -3  -2   29.60    8.00
  -4  -3  -2   35.00    7.40
   4  -3   2   35.70    7.70
  -4   3  -2   27.10    5.70
  -4   3  -2   25.00    6.00
  -4   3  -2   16.60    5.20
   4   3   2   40.90    6.50
  -4   3  -2   44.80    7.50
  -5  -3  -2   -1.90    2.60
  -5  -3  -2    4.80    2.20
   5   3   2    2.60    2.80
  -5   3  -2   -0.50    1.40
  -5   3  -2   12.20    4.00
  -5   3  -2    1.00    3.30
  -5  -4   2   -1.70    1.30
  -5   4   2    2.10    2.70
   5   4  -2    1.20    2.10
  -5   4   2    1.40    1.30
  -4  -4   2    1.90    2.50
   4  -4  -2    3.80    3.30
   4  -4  -2   -0.40    2.30
  -4  -4   2   -0.20    3.00
  -4  -4   2   -0.30    2.00
  -4   4   2    0.70    3.20
   4   4  -2    6.50    5.30
  -4   4   2   -3.30    1.70
  -4   4   2    0.40    5.00
  -4   4   2   -0.20    2.80
  -3  -4   2  143.79   11.70
  -3  -4   2  146.69   12.70
   3  -4  -2  144.69   11.00
  -3  -4   2  136.59   12.00
   3  -4  -2  113.69   11.50
  -3   4   2  149.79   11.60
  -3   4   2  143.29   11.90
  -3   4   2  145.29   10.90
   3   4  -2  137.99   10.40
  -3   4   2  136.69   12.40
  -3   4   2  127.99    9.80
   2  -4  -2    1.80    2.70
  -2  -4   2    8.10    3.20
  -2  -4   2   12.10    2.90
  -2   4   2   14.60    3.60
  -2   4   2   10.00    3.20
  -2   4   2    7.50    2.10
  -1  -4   2 1747.63   46.00
  -1  -4   2 1746.93   47.80
   1  -4  -2 1708.93   43.80
   1   4  -2 1720.83   46.00
  -1   4   2 1668.83   43.30
  -1   4   2 1764.42   48.90
   0  -4  -2   29.30    2.90
   0  -4   2   25.90    2.50
   0  -4   2   28.50    2.10
   0   4  -2   30.70    3.40
   0   4   2   27.40    3.60
  -1  -4  -2   20.00    3.70
  -1  -4  -2   20.70    3.30
   1   4   2   18.60    3.10
  -1   4  -2   18.90    1.60
  -1   4  -2   18.70    3.40
   2  -4   2   42.20    3.40
  -2  -4  -2   41.50    5.70
  -2  -4  -2   48.90    6.70
  -2  -4  -2   44.60    5.40
   2   4   2   41.00    5.40
  -2   4  -2   50.49    5.60
  -2   4  -2   50.79    6.30
  -3  -4  -2   29.00    6.10
  -3  -4  -2   29.80    6.00
   3  -4   2   25.60    5.80
  -3  -4  -2   38.00    6.40
  -3  -4  -2   29.70    6.10
  -3  -4  -2   28.40    6.10
   3  -4   2   27.50    5.10
  -3   4  -2   28.90    6.10
  -3   4  -2   26.30    5.80
  -3   4  -2   22.70    4.80
   3   4   2   28.10    4.80
  -4  -4  -2    1.10    4.30
  -4  -4  -2    4.10    3.70
   4  -4   2    3.60    3.80
  -4  -4  -2    0.30    2.50
  -4   4  -2   -3.90    4.20
  -4   4  -2   -0.10    2.60
  -4   4  -2    3.00    4.70
  -4   4  -2   -0.60    2.10
  -5  -4  -2    0.30    1.50
  -5   4  -2   -1.90    3.00
  -5   4  -2   -0.30    1.50
   5   4   2    3.60    2.50
  -5  -5   2    5.90    2.00
   5  -5  -2    0.50    1.70
  -5  -5   2    3.30    2.50
   5   5  -2    4.50    2.60
  -5   5   2    4.20    2.00
  -4  -5   2    4.50    3.10
   4  -5  -2    3.80    3.10
  -4  -5   2    3.40    3.40
  -4  -5   2    4.80    3.10
  -4   5   2    8.00    3.00
  -4   5   2    4.60    3.40
  -4   5   2    5.10    2.90
   3  -5  -2  143.09   11.60
  -3  -5   2  131.99   12.70
   3  -5  -2  132.49   13.10
  -3  -5   2  132.89   12.40
  -3  -5   2  129.59   11.40
  -3  -5   2  134.99   10.50
   3   5  -2  145.09   11.20
  -3   5   2  149.69   12.10
  -3   5   2  145.39   13.20
  -3   5   2  131.49   10.50
  -3   5   2  128.99    9.80
  -3   5   2  146.29   11.80
   2  -5  -2    0.30    2.50
  -2  -5   2    1.50    2.80
  -2  -5   2    2.00    2.40
   2  -5  -2    9.80    3.40
  -2  -5   2    0.80    2.40
   2  -5  -2   -0.80    1.50
  -2  -5   2    4.20    3.50
  -2   5   2    3.50    1.90
  -2   5   2   11.50    3.20
   2   5  -2    4.80    2.30
  -2   5   2    1.10    1.70
  -2   5   2    3.20    2.20
   1  -5  -2  199.58    8.20
  -1  -5   2  192.18    9.60
  -1  -5   2  188.18   10.60
  -1   5   2  180.58    6.00
  -1   5   2  194.28   10.40
   1   5  -2  189.08   10.60
  -1   5   2  192.98   11.40
   1   5  -2  175.48    9.10
   0  -5   2  504.45   14.20
   0  -5   2  496.95   15.40
   0  -5  -2  518.55   18.80
   0  -5  -2  538.25   17.30
   0   5   2  526.85   19.70
   0   5  -2  469.75   18.40
   0   5  -2  523.75   18.90
   0   5   2  502.75   18.70
  -1  -5  -2  708.23   25.20
  -1  -5  -2  745.43   25.20
  -1  -5  -2  750.72   27.00
  -1   5  -2  716.33   25.30
   1   5   2  726.23   24.90
  -1   5  -2  748.73   26.70
  -2  -5  -2   74.69    9.10
  -2  -5  -2   80.09    7.90
   2  -5   2   74.89    8.70
  -2  -5  -2   70.29    8.40
  -2  -5  -2   68.69    7.20
  -2   5  -2   60.69    7.60
   2   5   2   68.19    7.00
  -2   5  -2   74.29    7.80
  -2   5  -2   65.49    4.80
  -2   5  -2   68.09    7.10
  -3  -5  -2   -4.50    2.10
   3  -5   2    4.30    3.70
   3  -5   2   -1.30    2.40
  -3  -5  -2    4.70    3.70
  -3  -5  -2    2.40    2.60
   3   5   2    0.40    3.80
  -3   5  -2   -2.80    2.00
  -3   5  -2    4.60    4.10
  -3   5  -2    0.40    2.30
   4  -5   2   60.89    8.80
  -4  -5  -2   76.59    9.50
  -4  -5  -2   45.50    9.30
  -4  -5  -2   62.29    9.30
  -4   5  -2   67.79    7.60
  -4   5  -2   58.89    7.90
  -5  -5  -2    4.90    2.40
   5  -5   2    3.00    1.80
  -5  -5  -2    8.60    2.50
   5   5   2    8.10    3.00
  -5   5  -2    6.80    2.30
   5   5   2    6.80    3.60
  -4  -6   2    6.60    4.70
  -4  -6   2   10.00    3.20
   4  -6  -2   10.50    4.50
   4  -6  -2   25.50    5.70
  -4  -6   2    4.60    2.90
  -4   6   2   12.00    3.70
  -4   6   2   10.90    3.40
  -3  -6   2   71.49    9.50
  -3  -6   2   77.19    8.50
   3  -6  -2   67.49   10.00
  -3  -6   2   60.29    9.00
   3  -6  -2   69.39    8.20
  -3   6   2   65.69    8.10
  -3   6   2   67.39    7.30
   3   6  -2   63.59    8.00
   2  -6  -2    4.50    3.10
   2  -6  -2   -0.90    1.90
  -2  -6   2    0.50    2.90
  -2  -6   2    2.60    2.20
  -2  -6   2   -1.50    2.20
   2  -6  -2    2.40    2.70
   2   6  -2    4.30    2.60
  -2   6   2    5.30    2.30
  -2   6   2    1.00    2.40
  -2   6   2    5.00    2.80
   1  -6  -2  367.46   18.50
  -1  -6   2  402.66   20.00
  -1  -6   2  395.96   15.80
   1  -6  -2  389.66   19.40
   1  -6  -2  389.76   21.50
  -1  -6   2  414.36   17.30
  -1   6   2  401.46   17.30
   1   6  -2  396.76   17.50
  -1   6   2  392.36   18.20
   1   6  -2  393.56   19.40
  -1   6   2  404.26   19.40
   0  -6  -2   74.19    6.10
   0  -6  -2   71.89    5.40
   0  -6  -2   60.99    6.40
   0   6   2   64.49    6.40
   0   6  -2   66.19    6.40
   0   6   2   63.19    6.70
   0   6  -2   65.99    6.30
  -1  -6  -2   99.29    8.50
  -1  -6  -2   99.29    9.90
  -1  -6  -2   80.99    7.70
   1  -6   2   75.89    9.30
   1  -6   2   87.09    8.30
  -1  -6  -2   94.59    9.10
   1   6   2   96.49    8.90
  -1   6  -2  102.29    8.30
  -1   6  -2   89.49    8.20
  -1   6  -2   97.79    8.60
   1   6   2   93.89    7.80
   2  -6   2    2.90    2.80
  -2  -6  -2    4.00    3.20
   2  -6   2    9.30    4.10
   2  -6   2    0.90    3.80
  -2  -6  -2    5.00    3.10
  -2  -6  -2   -0.40    2.40
  -2  -6  -2    6.00    3.50
   2   6   2    0.20    2.50
  -2   6  -2    1.20    2.80
  -2   6  -2    6.50    2.90
  -2   6  -2    4.60    2.70
  -3  -6  -2  111.99   11.90
  -3  -6  -2  115.69   11.50
  -3  -6  -2  113.59   11.90
   3  -6   2  119.39   12.60
  -3   6  -2  108.59   10.20
  -3   6  -2  110.39   10.50
   4  -6   2    3.80    2.30
  -4  -6  -2    2.40    2.50
  -4  -6  -2    0.80    2.20
   4  -6   2    3.20    2.40
  -4   6  -2   -0.80    1.40
  -4   6  -2   -2.90    1.60
  -4  -7   2   32.80    6.30
  -4  -7   2   36.90    5.50
   4  -7  -2   37.70    5.50
  -4   7   2   39.10    5.60
  -3  -7   2    6.60    4.60
   3  -7  -2    0.50    2.80
  -3  -7   2    0.20    2.10
  -3  -7   2    0.40    2.80
   3   7  -2   -3.10    3.00
  -3   7   2    7.30    3.50
  -3   7   2    3.40    2.50
   2  -7  -2   16.20    4.10
  -2  -7   2    5.50    4.60
  -2  -7   2   26.40    5.30
  -2  -7   2   19.70    5.30
   2  -7  -2   16.90    4.70
  -2   7   2   18.50    4.30
   2   7  -2   11.50    3.70
  -2   7   2   15.10    5.20
  -2   7   2   15.50    4.40
  -1  -7   2   11.50    3.80
   1  -7  -2    4.60    3.00
   1  -7  -2    1.50    2.30
  -1  -7   2   11.10    4.00
   1   7  -2    4.90    2.40
   1   7  -2    6.50    3.30
  -1   7   2    6.80    2.90
  -1   7   2    7.10    2.40
  -1   7   2   14.90    3.70
   0  -7  -2    5.10    2.70
   0  -7   2    6.20    3.70
   0  -7   2    2.30    2.10
   0  -7  -2    1.20    2.20
   0   7  -2    0.40    1.90
   0   7   2    3.10    2.10
   0   7   2    1.90    1.70
   0   7  -2    0.30    1.70
   0   7  -2    1.90    2.40
  -1  -7  -2  408.56   19.70
  -1  -7  -2  426.46   21.60
  -1  -7  -2  446.86   22.80
  -1  -7  -2  418.26   20.60
   1  -7   2  415.26   20.50
   1  -7   2  419.26   19.40
   1  -7   2  435.06   23.60
   1   7   2  413.36   20.80
  -1   7  -2  413.76   19.40
  -1   7  -2  430.06   21.40
   1   7   2  436.46   19.60
  -1   7  -2  410.76   19.90
   2  -7   2   15.10    4.30
  -2  -7  -2   12.80    4.70
  -2  -7  -2   18.40    4.90
  -2  -7  -2   26.40    5.80
   2  -7   2   10.30    4.30
  -2   7  -2   12.80    6.80
   2   7   2   10.70    3.40
  -2   7  -2   12.50    3.60
  -3  -7  -2   44.80    6.80
  -3  -7  -2   34.00    7.70
   3  -7   2   44.90    7.30
  -3  -7  -2   56.19    9.40
   3  -7   2   42.30    8.60
  -3   7  -2   45.90    6.30
  -3   7  -2   31.50    5.80
  -4  -7  -2   -0.30    1.80
   4  -7   2   -0.20    1.30
  -4  -7  -2    0.60    1.70
  -4   7  -2    0.10    1.50
  -4   7  -2    1.00    2.30
   4  -8  -2    0.10    1.40
  -4  -8   2   -2.30    1.10
  -4   8   2    2.20    1.50
  -3  -8   2    5.30    3.20
   3  -8  -2    9.20    3.80
   3  -8  -2    1.40    3.90
  -3  -8   2    8.50    3.40
   3   8  -2    5.20    3.50
  -3   8   2    2.90    2.50
  -3   8   2    6.20    3.10
   2  -8  -2   -1.10    2.20
  -2  -8   2    1.20    2.50
  -2  -8   2    1.40    3.00
   2  -8  -2   -0.30    3.00
  -2   8   2    4.20    2.90
  -2   8   2   -1.00    1.70
   2   8  -2   -0.50    1.90
   1  -8  -2    1.40    2.60
   1  -8  -2    1.50    2.50
  -1  -8   2    2.00    2.10
  -1  -8   2    4.70    3.80
  -1   8   2    4.80    2.70
  -1   8   2   -1.70    1.50
   1   8  -2    4.40    2.50
   0  -8  -2    7.50    3.00
   0  -8   2    7.70    4.50
   0  -8  -2    5.90    2.90
   0  -8   2    6.50    2.90
   0   8   2    4.10    3.20
   0   8  -2    5.20    2.50
   0   8  -2    7.10    3.50
   0   8   2    7.40    2.70
  -1  -8  -2   -1.40    1.70
  -1  -8  -2   -2.40    2.40
   1  -8   2    3.30    2.10
  -1   8  -2    0.70    1.80
   1   8   2    3.10    2.60
  -1   8  -2   -1.50    1.90
   1   8   2    3.40    2.60
   2  -8   2    1.50    2.50
  -2  -8  -2    4.20    3.30
  -2  -8  -2    1.60    5.20
   2  -8   2    7.10    3.80
  -2  -8  -2    5.30    3.70
  -2   8  -2    4.50    2.70
  -2   8  -2    4.00    2.80
   2   8   2    8.20    3.80
   3  -8   2   42.50    6.00
  -3  -8  -2   31.20    6.50
  -3  -8  -2   27.40    5.70
  -3  -8  -2   26.50    7.50
  -3   8  -2   31.80    4.80
  -3   8  -2   29.50    5.40
  -4  -8  -2    0.30    2.30
  -4  -8  -2   -0.90    1.70
   4  -8   2   -1.10    0.90
  -4   8  -2    0.40    1.10
  -4   8  -2   -1.30    3.30
   3  -9  -2    4.90    2.20
  -3  -9   2    5.70    2.70
  -3   9   2    4.90    2.20
  -2  -9   2    5.50    3.20
   2  -9  -2    9.70    3.10
  -2  -9   2   -3.20    4.50
   2  -9  -2    7.70    3.60
  -2   9   2    5.40    3.10
  -2   9   2    5.60    2.60
   2   9  -2    3.90    2.60
   1  -9  -2   32.10    6.90
   1  -9  -2   44.70    6.90
  -1  -9   2   31.90    6.30
  -1   9   2   29.40    5.30
  -1   9   2   33.60    5.50
   1   9  -2   25.80    6.10
   1   9  -2   30.40    5.50
   0  -9  -2   24.10    5.60
   0  -9  -2   30.90    6.30
   0  -9   2   29.70    5.90
   0   9  -2   23.20    5.10
   0   9  -2   32.30    5.30
   0   9   2   39.80    5.60
  -1  -9  -2   75.79    8.70
  -1  -9  -2   78.39    9.10
   1  -9   2   77.59    8.50
  -1   9  -2   74.39    8.20
  -1   9  -2   73.09    8.30
   1   9   2   77.79    8.90
   1   9   2   72.19    7.40
   2  -9   2   42.40    6.10
  -2  -9  -2   42.70    6.00
  -2  -9  -2   34.50    7.00
  -2   9  -2   46.50    6.40
  -2   9  -2   40.30    5.60
  -3  -9  -2    6.70    3.00
  -3  -9  -2    9.90    3.00
   3  -9   2    7.70    2.50
  -3   9  -2    8.90    2.80
  -3   9  -2    8.20    2.60
   3 -10  -2    8.00    2.10
  -3 -10   2    5.70    2.50
  -3  10   2    7.80    2.10
  -2 -10   2   20.10    4.40
   2 -10  -2   23.90    4.40
  -2  10   2   26.00    4.40
   2  10  -2   12.80    4.50
  -2  10   2   13.80    3.70
  -1 -10   2    0.90    2.30
   1 -10  -2    6.20    2.90
  -1  10   2    5.40    2.60
   1  10  -2    2.10    1.90
  -1  10   2    6.50    3.00
   0 -10  -2   -1.60    2.80
   0 -10  -2    0.30    1.90
   0 -10   2   -2.00    1.70
   0  10  -2   -0.70    1.80
   0  10   2   -0.80    2.90
   0  10  -2   -0.40    1.60
   0  10   2   -2.30    1.30
   1 -10   2   -0.50    2.00
  -1 -10  -2   -0.80    1.60
  -1  10  -2   -0.20    1.60
  -1  10  -2    3.90    2.50
   1  10   2   -6.30    5.40
  -2 -10  -2    5.40    3.00
   2 -10   2    6.10    2.10
  -2 -10  -2    8.20    2.90
  -2  10  -2    5.30    2.50
  -2  10  -2   10.50    2.90
  -3 -10  -2   -0.10    1.80
   3 -10   2   -0.80    1.00
  -3  10  -2   -1.00    1.30
   2 -11  -2    0.30    1.10
  -2 -11   2    0.20    1.20
  -2  11   2   -1.90    0.90
  -1 -11   2    1.20    1.80
   1 -11  -2    1.80    1.60
  -1  11   2    4.20    1.70
   0 -11   2    5.10    2.10
   0 -11  -2    0.80    1.30
   0  11  -2    3.50    2.20
   0  11  -2    5.90    2.90
   0  11   2    2.60    2.10
  -1 -11  -2    0.10    1.40
   1 -11   2    0.70    1.30
  -1  11  -2   -4.70    2.70
  -1  11  -2    0.30    1.40
   2 -11   2    7.40    2.00
  -2 -11  -2    2.40    1.50
  -2  11  -2    0.70    1.40
  -5   0   3   -2.00    2.00
  -5   0   3    3.70    2.60
   5   0  -3   -0.30    1.80
  -4   0   3    0.60    1.60
  -4   0   3   -6.40    3.50
  -4   0   3   -1.40    2.20
   4   0  -3    5.60    5.00
   4   0  -3   -0.50    2.20
  -4   0   3    2.30    2.50
   3   0  -3  468.85   19.50
  -3   0   3  477.05   19.30
  -3   0   3  482.45   21.50
  -3   0   3  467.85   19.50
   3   0  -3  484.25   21.60
  -3   0   3  476.25   22.20
  -2   0   3   -1.20    1.00
   2   0  -3    0.70    1.40
  -2   0   3   -1.10    0.80
  -1   0   3 7045.20  170.98
   1   0  -3 7301.77  171.38
  -1   0   3 7711.63  173.88
   0   0   3   -0.40    0.40
  -1   0  -3   34.60    2.80
   1   0   3   33.40    2.80
   2   0   3    0.40    1.20
  -2   0  -3    0.70    1.20
  -2   0  -3    2.00    1.60
  -2   0  -3    0.10    0.80
  -3   0  -3   45.10    5.90
  -3   0  -3   41.80    6.40
  -3   0  -3   42.40    6.10
  -3   0  -3   47.30    6.30
  -4   0  -3   -0.60    2.20
   4   0   3   -1.00    2.50
  -4   0  -3   -4.70    3.50
  -4   0  -3    2.70    2.60
  -5   0  -3    0.90    3.20
  -5   0  -3    1.50    2.00
  -5   0  -3    5.80    3.80
  -5  -1   3    8.20    3.20
   5  -1  -3    6.70    2.80
   5   1  -3   10.40    3.40
  -4  -1   3   28.80    6.10
   4  -1  -3   15.70    4.50
  -4  -1   3   18.40    4.10
  -4  -1   3   11.40    4.30
  -4  -1   3   11.40    5.10
   4   1  -3   26.40    5.40
  -4   1   3   28.70    6.10
  -4   1   3   29.90    5.80
   4   1  -3   18.50    4.70
  -4   1   3   14.10    4.10
  -4   1   3   14.00    4.30
  -3  -1   3   -2.70    2.20
  -3  -1   3    0.10    1.80
   3  -1  -3    6.60    2.80
   3  -1  -3    4.00    2.60
  -3  -1   3    4.10    2.60
  -3  -1   3    2.50    2.80
  -3   1   3    8.00    3.10
   3   1  -3    2.50    2.30
  -3   1   3    2.90    2.40
  -3   1   3   -0.20    2.20
   2  -1  -3    1.90    1.80
  -2  -1   3    4.20    2.00
  -2  -1   3    7.70    1.90
  -2   1   3    5.90    1.90
  -2   1   3    4.00    2.20
   0  -1  -3  329.57   10.20
   0  -1  -3  338.57    9.90
   0  -1   3  335.17    9.40
   0   1  -3  332.67    9.30
   0   1  -3  321.07    9.30
   0   1   3  346.37   10.00
   0   1   3  342.67   10.10
  -1  -1  -3 1289.17   34.60
  -1  -1  -3 1382.76   36.50
   1  -1   3 1312.67   33.00
   1   1   3 1313.77   34.60
  -1   1  -3 1309.87   35.60
  -1   1  -3 1332.37   34.10
  -1   1  -3 1318.67   33.10
   2  -1   3   45.40    4.30
  -2  -1  -3   45.00    4.70
  -2  -1  -3   48.20    5.50
  -2   1  -3   46.90    4.20
  -2   1  -3   51.39    5.30
  -2   1  -3   47.40    4.70
  -3  -1  -3  668.33   27.50
  -3  -1  -3  659.93   26.60
  -3  -1  -3  642.94   27.90
  -3  -1  -3  631.34   26.00
  -3  -1  -3  673.83   26.20
  -3   1  -3  647.24   26.50
  -3   1  -3  627.64   25.70
  -3   1  -3  708.63   27.90
  -3   1  -3  678.03   26.30
  -4  -1  -3   46.10    7.30
  -4  -1  -3   42.20    7.80
  -4  -1  -3   39.30    6.40
   4  -1   3   42.00    9.20
   4  -1   3   35.10    6.40
  -4  -1  -3   46.00    8.50
  -4   1  -3   58.89   10.00
   4   1   3   44.00    6.70
  -4   1  -3   42.50    6.80
   4   1   3   35.70    8.00
  -4   1  -3   40.80    6.70
  -5  -1  -3    5.20    4.70
  -5  -1  -3    2.10    2.60
  -5  -1  -3    3.40    2.40
  -5   1  -3    6.80    3.40
  -5   1  -3    5.00    2.50
  -5   1  -3    2.60    4.00
   5  -2  -3   -0.60    1.90
  -5  -2   3    0.40    1.80
  -5  -2   3    1.20    2.00
   5   2  -3    3.30    1.90
  -5   2   3   -0.70    1.70
  -5   2   3    7.90    3.20
  -4  -2   3   13.10    4.80
  -4  -2   3   14.70    4.30
   4  -2  -3   15.80    4.40
  -4  -2   3   28.40    5.50
  -4  -2   3    9.50    4.00
  -4   2   3    8.90    3.90
  -4   2   3   18.60    4.70
  -4   2   3    6.00    4.20
   4   2  -3   15.20    4.60
  -4   2   3   13.20    4.30
   4   2  -3   14.50    4.80
   3  -2  -3  267.17   15.10
  -3  -2   3  274.57   16.90
  -3  -2   3  252.77   13.40
  -3  -2   3  261.77   15.60
  -3  -2   3  272.07   12.20
  -3  -2   3  274.07   15.60
   3  -2  -3  266.17   13.40
  -3   2   3  266.67   15.40
  -3   2   3  289.37   15.40
  -3   2   3  264.87   15.40
  -3   2   3  265.27   14.90
   3   2  -3  280.07   14.30
  -3   2   3  272.27   14.20
   2  -2  -3  178.98    9.70
  -2  -2   3  171.48   10.70
  -2  -2   3  163.58    7.50
  -2   2   3  178.68    9.60
   2   2  -3  177.18    9.70
  -1  -2   3   41.90    3.90
  -1  -2   3   35.40    2.10
  -1  -2   3   37.90    3.20
   1   2  -3   37.40    3.30
  -1   2   3   34.90    3.50
  -1   2   3   37.60    3.10
   0  -2  -3 2172.48   51.29
   0  -2  -3 1996.20   52.39
   0  -2   3 2022.00   51.19
   0  -2   3 2063.79   48.90
   0   2  -3 2122.59   48.80
   0   2   3 2114.79   51.99
   0   2  -3 2043.40   49.00
   0   2   3 2171.98   50.59
   0   2  -3 2058.59   50.79
  -1  -2  -3 1629.54   44.60
   1  -2   3 1636.74   39.20
  -1  -2  -3 1641.84   42.90
   1   2   3 1597.94   42.70
  -1   2  -3 1627.04   43.40
  -2  -2  -3  661.33   23.70
  -2  -2  -3  690.03   24.10
  -2  -2  -3  704.13   25.80
   2  -2   3  658.43   20.90
  -2   2  -3  653.93   27.80
  -2   2  -3  679.43   24.40
  -2   2  -3  698.13   22.10
  -3  -2  -3   -0.90    2.20
   3  -2   3    2.80    2.70
  -3  -2  -3    2.20    2.90
  -3  -2  -3   -0.30    2.40
  -3  -2  -3    2.20    2.30
  -3  -2  -3   -1.40    1.90
  -3   2  -3    3.20    2.10
  -3   2  -3    0.70    1.70
  -3   2  -3    0.60    2.20
  -3   2  -3    4.20    2.60
  -4  -2  -3   18.90    5.20
   4  -2   3   13.60    4.90
  -4  -2  -3   12.90    5.10
   4  -2   3   18.30    5.20
  -4  -2  -3   18.50    4.30
  -4  -2  -3   27.20    6.30
   4   2   3   15.10    4.60
  -4   2  -3   14.50    5.80
  -4   2  -3   10.20    4.00
   4   2   3   18.50    4.70
  -4   2  -3   31.30    5.70
  -5  -2  -3   -3.60    3.00
  -5  -2  -3    2.70    2.00
  -5   2  -3    0.80    2.90
   5   2   3   -0.10    3.40
  -5   2  -3   -4.60    3.70
  -5   2  -3    4.90    2.20
  -5  -3   3    3.90    2.00
   5  -3  -3    6.90    2.90
  -5  -3   3    3.20    2.30
   5   3  -3    8.60    3.10
  -5   3   3    5.00    2.20
  -5   3   3    5.10    2.30
  -4  -3   3   10.60    5.70
  -4  -3   3    9.30    3.40
  -4  -3   3   10.90    4.40
  -4  -3   3   13.10    4.70
   4  -3  -3    5.10    3.00
  -4   3   3   13.90    4.30
  -4   3   3    8.30    3.30
  -4   3   3    9.80    3.90
   4   3  -3   17.70    4.70
  -4   3   3    7.70    4.40
  -3  -3   3    9.90    4.00
   3  -3  -3    9.40    3.20
  -3  -3   3    9.60    3.50
   3  -3  -3    5.70    3.70
   3  -3  -3   15.60    4.10
  -3  -3   3    8.00    3.20
  -3   3   3    5.40    3.10
  -3   3   3    4.70    2.30
  -3   3   3    5.20    3.40
  -3   3   3    5.50    3.00
   3   3  -3    7.90    3.50
  -3   3   3    6.90    3.10
  -2  -3   3   -0.60    1.50
   2  -3  -3    0.10    1.90
  -2   3   3    2.80    1.70
   2   3  -3    1.80    1.50
  -2   3   3    0.20    1.00
  -2   3   3   -1.50    1.30
  -1  -3   3 1475.75   40.10
  -1  -3   3 1384.56   36.80
  -1  -3   3 1465.15   38.50
  -1   3   3 1452.75   37.40
   1   3  -3 1448.16   38.50
  -1   3   3 1459.65   40.50
   0  -3  -3  960.20   25.60
   0  -3   3  881.91   26.30
   0   3  -3  934.01   22.60
   0   3   3  947.21   27.00
   0   3  -3  911.21   25.70
   0   3   3  936.41   24.10
  -1  -3  -3  127.69    8.20
  -1  -3  -3  113.89    6.80
  -1   3  -3  112.89    7.20
   1   3   3  109.49    6.50
  -2  -3  -3  326.57   17.10
   2  -3   3  333.17   11.70
  -2  -3  -3  350.06   16.00
  -2  -3  -3  335.07   15.80
  -2   3  -3  327.47   15.90
  -2   3  -3  324.77   14.70
   3  -3   3  122.29    9.70
  -3  -3  -3  117.39   10.10
  -3  -3  -3  119.59   10.50
  -3  -3  -3  124.09   11.90
   3  -3   3  123.59   11.60
  -3  -3  -3  110.29   10.50
  -3  -3  -3  124.99   11.70
  -3   3  -3  116.59   10.20
  -3   3  -3  113.79   10.80
  -3   3  -3  134.69   10.50
  -4  -3  -3   56.19    8.10
  -4  -3  -3   47.50    7.50
   4  -3   3   31.30    7.40
  -4  -3  -3   35.30    7.90
  -4  -3  -3   38.90    8.30
  -4   3  -3   50.59    7.60
  -4   3  -3   44.60    6.60
   4   3   3   46.60    7.10
  -4   3  -3   55.29   13.60
  -5  -3  -3    3.40    2.80
  -5  -3  -3    2.30    1.70
  -5   3  -3    5.50    3.30
  -5   3  -3    4.00    2.20
   5   3   3    7.30    3.20
  -5  -4   3    4.00    2.00
   5  -4  -3   -6.00    5.40
  -5  -4   3    1.20    1.60
  -5   4   3    2.30    2.10
   5   4  -3    4.70    2.50
  -5   4   3    2.40    1.90
   4  -4  -3   43.60    6.50
  -4  -4   3   40.20    6.80
  -4  -4   3   33.20    8.90
  -4  -4   3   28.80    5.90
  -4  -4   3   43.80    7.40
  -4   4   3   48.50    7.70
  -4   4   3   20.60    5.90
   4   4  -3   42.40    8.00
  -4   4   3   33.80    6.10
  -4   4   3   31.60    6.60
  -3  -4   3    6.80    3.30
  -3  -4   3    3.80    2.70
   3  -4  -3    1.90    2.70
   3  -4  -3    1.30    2.30
  -3  -4   3   -0.90    2.60
  -3   4   3    0.80    1.70
   3   4  -3   -1.00    2.40
  -3   4   3    5.00    2.70
  -3   4   3   -0.90    3.40
  -3   4   3    4.40    2.70
  -3   4   3   -2.30    1.90
   2  -4  -3  103.79    7.70
   2  -4  -3  103.09    8.10
  -2  -4   3  101.59    8.70
  -2   4   3  109.69    7.00
  -2   4   3  108.29    8.30
  -2   4   3  112.59    9.00
   2   4  -3   96.69    7.80
  -1  -4   3   -1.20    1.30
  -1  -4   3    0.50    1.10
   1  -4  -3   -0.30    0.60
  -1  -4   3    0.60    0.80
  -1   4   3   -0.80    1.10
   1   4  -3    2.30    1.10
  -1   4   3    2.90    1.00
   0  -4  -3   86.29    5.30
   0   4   3   81.69    3.90
   0   4   3   88.19    6.40
   0   4  -3   85.49    5.70
  -1  -4  -3   66.49    5.60
  -1  -4  -3   59.89    5.90
  -1   4  -3   59.39    2.80
  -1   4  -3   64.39    5.70
   1   4   3   50.49    5.00
  -2  -4  -3  674.83   27.70
  -2  -4  -3  649.93   25.60
  -2  -4  -3  659.33   25.10
  -2   4  -3  647.64   24.40
   2   4   3  641.04   23.00
  -2   4  -3  678.53   26.50
  -3  -4  -3   48.30    7.20
  -3  -4  -3   56.39    8.30
   3  -4   3   62.79    8.50
  -3  -4  -3   36.40    6.90
   3  -4   3   38.60    7.40
  -3  -4  -3   49.99    8.70
  -3  -4  -3   37.40    6.70
  -3   4  -3   56.99    7.20
  -3   4  -3   49.00    6.70
  -3   4  -3   41.00    7.70
  -4  -4  -3   54.49    8.00
  -4  -4  -3   43.90    8.50
   4  -4   3   59.09    8.80
  -4  -4  -3   32.80    8.00
  -4  -4  -3   59.09    9.10
  -4   4  -3   52.29    7.40
  -4   4  -3   46.90    7.20
  -5  -4  -3    1.00    2.20
  -5  -4  -3   -2.30    1.80
  -5   4  -3   -0.30    2.90
   5   4   3    2.30    3.70
   5   4   3    1.70    3.80
  -5   4  -3    0.60    1.40
  -5  -5   3    6.20    2.70
  -5  -5   3   -0.10    3.40
   5  -5  -3    3.20    2.00
  -5   5   3    6.40    2.20
   5   5  -3    1.50    2.00
  -4  -5   3   -1.40    2.70
  -4  -5   3    5.10    2.60
  -4  -5   3    4.50    3.40
   4  -5  -3    9.50    3.20
  -4   5   3    4.80    3.00
   4   5  -3    8.80    4.40
  -4   5   3    4.90    2.90
  -4   5   3    5.40    3.20
  -3  -5   3  141.39   12.70
  -3  -5   3  125.59    9.80
  -3  -5   3  136.69   12.50
  -3  -5   3  122.29   10.90
   3  -5  -3  114.89   10.50
   3  -5  -3  131.09   12.80
  -3   5   3  109.59    9.50
   3   5  -3  156.38   11.90
  -3   5   3  139.39   11.80
  -3   5   3  116.29   12.50
  -3   5   3  128.29   11.40
  -3   5   3  130.19   10.20
  -2  -5   3   49.90    7.00
   2  -5  -3   50.59    4.80
   2  -5  -3   34.30    5.50
   2  -5  -3   53.09    7.80
  -2  -5   3   49.90    6.80
   2  -5  -3   56.19    7.00
  -2  -5   3   44.80    6.40
  -2  -5   3   52.09    4.90
  -2   5   3   61.99    5.10
  -2   5   3   52.79    6.70
  -2   5   3   50.59    6.00
  -2   5   3   51.29    7.30
   2   5  -3   47.10    6.10
   1  -5  -3  191.58    8.50
   1  -5  -3  177.48   10.10
  -1  -5   3  181.18   10.10
  -1  -5   3  192.88    9.20
  -1   5   3  187.58   11.30
   1   5  -3  182.18   10.50
  -1   5   3  165.78    6.70
  -1   5   3  187.28   10.10
   1   5  -3  176.18    9.00
   0  -5  -3  602.24   21.70
   0  -5  -3  642.94   20.60
   0  -5  -3  608.64   22.20
   0   5  -3  625.24   21.50
   0   5   3  651.03   23.00
   0   5   3  638.54   21.80
   0   5  -3  612.24   21.40
  -1  -5  -3   47.50    5.40
  -1  -5  -3   45.70    5.90
  -1  -5  -3   39.50    5.00
  -1   5  -3   37.10    5.30
   1   5   3   40.90    5.00
  -1   5  -3   38.10    5.00
  -2  -5  -3   85.59    9.00
  -2  -5  -3   98.19    9.70
  -2  -5  -3   82.99    8.80
   2  -5   3   95.09    9.90
  -2  -5  -3  100.69   10.50
  -2  -5  -3   98.69    8.80
  -2   5  -3   85.19    8.40
  -2   5  -3   89.49    8.10
   2   5   3   96.79    7.80
  -2   5  -3   80.09    5.30
  -2   5  -3   83.69    9.10
  -3  -5  -3    8.30    3.60
   3  -5   3   -3.40    2.00
  -3  -5  -3    6.30    2.80
  -3  -5  -3   -2.20    2.10
  -3   5  -3    0.00    1.80
  -3   5  -3   -0.90    2.30
  -4  -5  -3    7.40    3.60
  -4  -5  -3    5.80    3.70
   4  -5   3    9.70    3.80
  -4  -5  -3    4.80    3.70
  -4   5  -3    5.40    2.90
  -4   5  -3    1.20    2.10
   5  -5   3    2.30    1.70
  -5  -5  -3    1.50    2.80
  -5  -5  -3    2.50    1.50
  -5   5  -3    0.20    1.50
   5   5   3    1.10    3.00
   4  -6  -3    8.10    3.20
  -4  -6   3    3.50    2.70
  -4  -6   3    4.70    3.00
   4  -6  -3    2.70    2.70
  -4   6   3    0.00    3.40
  -4   6   3    2.10    2.10
  -3  -6   3    5.50    3.10
  -3  -6   3   11.70    4.40
  -3  -6   3   10.70    4.20
   3  -6  -3   12.40    4.10
   3   6  -3    7.80    3.60
  -3   6   3    5.40    3.10
  -3   6   3    6.20    2.80
   2  -6  -3  484.85   24.90
  -2  -6   3  455.45   23.40
   2  -6  -3  476.05   25.80
   2  -6  -3  482.65   22.10
  -2  -6   3  478.45   22.60
  -2  -6   3  480.85   21.70
  -2   6   3  479.45   22.60
  -2   6   3  478.15   20.60
  -2   6   3  495.25   24.30
   2   6  -3  502.85   22.10
   1  -6  -3   -3.50    1.90
  -1  -6   3    0.00    2.30
   1  -6  -3    4.10    3.10
  -1  -6   3    5.70    2.70
   1  -6  -3    2.30    2.70
   1  -6  -3    5.10    2.00
  -1   6   3    1.40    1.90
   1   6  -3   -1.90    2.50
  -1   6   3   -1.90    1.50
  -1   6   3    1.60    1.80
   0  -6  -3   80.89    7.10
   0  -6  -3   85.29    6.80
   0  -6  -3   88.59    7.70
   0  -6   3   72.99    8.90
   0   6   3   82.29    7.00
   0   6   3   92.19    8.20
   0   6  -3   85.19    7.00
   0   6   3   99.79    8.30
   0   6  -3   81.29    7.00
  -1  -6  -3  113.39   10.20
  -1  -6  -3  120.39    9.00
   1  -6   3  115.69   11.10
   1  -6   3  120.99    9.80
  -1  -6  -3  129.69   11.50
  -1  -6  -3  123.89   10.00
  -1  -6  -3  110.69    8.70
  -1   6  -3  120.29    9.60
   1   6   3  119.49    9.10
   1   6   3  106.39    9.30
  -1   6  -3  105.39    9.30
  -1   6  -3  126.79    9.20
  -2  -6  -3  129.89   11.90
  -2  -6  -3  126.09   10.50
  -2  -6  -3  123.89   12.10
   2  -6   3  133.19   12.90
   2  -6   3  139.49   11.70
  -2  -6  -3  122.69   11.30
  -2   6  -3  134.39   10.80
  -2   6  -3  149.99   12.10
  -2   6  -3  140.49   10.70
   2   6   3  140.59    9.90
   3  -6   3  102.99   11.80
  -3  -6  -3   70.79    9.90
  -3  -6  -3   83.69    9.70
  -3  -6  -3   56.19    8.90
  -3   6  -3   74.69    8.80
  -3   6  -3   74.19    8.60
   4  -6   3   12.40    4.40
  -4  -6  -3   29.00    6.90
  -4  -6  -3   16.90    4.60
   4  -6   3   13.50    3.90
  -4  -6  -3   14.90    4.90
  -4   6  -3   12.80    3.70
  -4   6  -3   20.20    4.20
  -4  -7   3    6.10    3.60
  -4  -7   3    7.70    3.30
   4  -7  -3    5.20    2.20
  -4   7   3    4.90    2.60
  -3  -7   3   11.20    4.00
   3  -7  -3   14.10    3.90
  -3  -7   3   15.90    4.90
  -3  -7   3   16.10    5.90
   3  -7  -3   12.50    4.10
  -3   7   3   16.70    4.10
  -3   7   3   16.40    4.80
   3   7  -3   25.40    5.60
  -2  -7   3   69.09    8.80
  -2  -7   3   75.49    8.00
  -2  -7   3   80.89    9.80
   2  -7  -3   81.69    9.30
   2  -7  -3   75.49    8.30
   2   7  -3   81.69    8.60
  -2   7   3   62.99   14.40
  -2   7   3   74.09    7.60
  -2   7   3   76.59    8.70
   1  -7  -3   20.70    5.10
  -1  -7   3   23.60    5.50
   1  -7  -3   23.70    5.10
  -1  -7   3   20.90    5.10
   1   7  -3   21.90    4.40
  -1   7   3   15.10    3.60
   1   7  -3   21.60    5.20
  -1   7   3   27.60    6.00
  -1   7   3   25.60    4.70
   0  -7   3   35.40    6.40
   0  -7  -3   26.80    6.10
   0  -7  -3   40.80    5.90
   0  -7  -3   38.20    6.20
   0  -7   3   34.50    5.50
   0   7  -3   40.40    5.60
   0   7  -3   42.70    6.00
   0   7  -3   24.90    5.30
   0   7   3   41.40    5.80
   0   7   3   41.00    5.40
  -1  -7  -3  161.78   13.20
  -1  -7  -3  154.68   12.10
  -1  -7  -3  163.38   11.60
  -1  -7  -3  162.18   12.90
  -1  -7  -3  161.48   12.80
   1  -7   3  158.08   13.80
   1  -7   3  162.38   11.80
  -1   7  -3  170.18   11.40
  -1   7  -3  163.88   12.50
  -1   7  -3  158.48   11.30
   1   7   3  172.18   11.40
   1   7   3  155.28   11.80
  -2  -7  -3   33.90    7.00
  -2  -7  -3   42.40    8.00
   2  -7   3   47.90    7.20
  -2  -7  -3   31.70    6.90
   2  -7   3   49.30    8.50
  -2   7  -3   40.30    6.10
  -2   7  -3   44.20    6.70
   2   7   3   39.30    6.50
   3  -7   3    1.20    2.40
  -3  -7  -3    6.70    2.90
   3  -7   3    4.80    3.20
  -3  -7  -3    5.70    4.00
  -3  -7  -3   11.60    5.80
  -3   7  -3    6.20    3.10
  -3   7  -3    5.40    2.50
  -4  -7  -3   -1.60    2.20
   4  -7   3    0.60    1.30
  -4  -7  -3    3.00    1.80
  -4   7  -3    2.90    2.40
  -4   7  -3    0.60    1.60
  -4  -8   3    5.70    2.30
   4  -8  -3    3.00    1.80
  -4   8   3    1.90    1.50
   3  -8  -3   17.50    5.00
   3  -8  -3   19.70    4.00
  -3   8   3   17.80    4.00
  -3   8   3   22.70    4.50
   3   8  -3   23.30    4.60
  -2  -8   3    5.60    4.10
   2  -8  -3   12.80    4.10
   2  -8  -3    6.10    3.40
  -2  -8   3    8.30    3.70
  -2   8   3   11.40    3.50
  -2   8   3    7.60    2.90
   2   8  -3    9.30    3.20
  -1  -8   3   20.30    4.80
   1  -8  -3   25.50    5.40
   1  -8  -3   18.50    4.60
  -1  -8   3   20.50    5.40
   1   8  -3   25.60    5.00
  -1   8   3   21.10    4.60
  -1   8   3   25.50    5.20
   1   8  -3   25.20    5.20
   0  -8   3  156.08   12.30
   0  -8  -3  148.79   12.60
   0  -8  -3  150.48   12.40
   0   8   3  148.19   10.70
   0   8  -3  152.88   12.00
   0   8  -3  163.28   11.70
   0   8   3  167.18   12.20
  -1  -8  -3    4.00    2.60
  -1  -8  -3    2.70    2.70
   1  -8   3    2.20    2.30
  -1  -8  -3   -5.30    5.00
   1   8   3    4.70    2.60
  -1   8  -3    5.40    2.30
   1   8   3    3.00    2.50
  -1   8  -3   -2.00    2.00
  -2  -8  -3   95.19   11.80
  -2  -8  -3  103.29   10.60
  -2  -8  -3  126.39   12.30
   2  -8   3  103.49   10.00
   2  -8   3  102.89   12.10
  -2   8  -3  107.09    9.50
  -2   8  -3   97.19    9.80
  -3  -8  -3   16.40    4.90
   3  -8   3   19.80    4.40
  -3  -8  -3   25.70    7.70
  -3  -8  -3   13.20    4.00
  -3   8  -3   25.60    4.70
  -3   8  -3   25.00    5.00
  -4  -8  -3    2.20    2.40
  -4  -8  -3    3.20    1.70
   4  -8   3    0.80    1.40
   4   8   3    6.40    2.30
  -4   8  -3    3.30    2.70
  -4   8  -3    1.20    1.40
   3  -9  -3    5.10    2.30
  -3  -9   3   -0.40    1.30
   2  -9  -3  101.49    9.80
  -2  -9   3  107.19   10.60
   2  -9  -3   94.19    9.00
   2   9  -3  105.49    9.00
  -2   9   3   94.39    8.20
  -2   9   3   88.89    8.80
   1  -9  -3   22.00    5.30
   1  -9  -3   27.00    5.90
  -1  -9   3   28.10    5.50
   1   9  -3   29.30    5.70
  -1   9   3   29.00    5.10
  -1   9   3   30.00    5.60
   1   9  -3   29.20    5.50
   0  -9  -3   25.90    6.00
   0  -9   3   15.20    4.20
   0   9  -3   26.50    5.30
   0   9   3   19.90    4.70
   0   9   3   16.00    4.70
  -1  -9  -3    4.20    3.00
   1  -9   3   -0.80    1.60
  -1   9  -3   -1.20    2.10
   1   9   3    0.60    3.00
  -1   9  -3    2.00    2.40
  -2  -9  -3    4.70    3.00
   2  -9   3   -0.70    1.80
  -2  -9  -3    7.60    3.50
  -2   9  -3    1.80    1.80
  -2   9  -3    4.30    2.50
   3  -9   3    0.20    1.10
  -3  -9  -3    1.70    1.80
  -3  -9  -3    2.70    2.20
  -3   9  -3   -1.20    1.40
  -3   9  -3    3.70    2.20
   3 -10  -3   -0.20    1.10
  -3 -10   3    2.20    1.60
  -3  10   3   -0.40    1.30
  -2 -10   3   -0.80    1.30
   2 -10  -3    1.70    1.30
  -2  10   3    0.50    1.40
   2  10  -3   -2.60    3.20
  -1 -10   3    1.40    2.10
   1 -10  -3    2.60    3.10
   1 -10  -3   -0.10    1.50
   1  10  -3    3.50    2.00
  -1  10   3    2.70    3.50
  -1  10   3    1.80    1.80
   0 -10  -3    0.40    3.00
   0 -10   3    3.40    2.10
   0 -10  -3    0.50    1.80
   0  10  -3   -1.40    1.20
   0  10   3    5.90    3.40
   0  10   3    5.60    2.70
   0  10  -3   -0.80    1.80
   1 -10   3    2.50    2.10
  -1 -10  -3    0.20    2.00
  -1 -10  -3    4.30    2.90
  -1  10  -3   -1.80    1.80
  -2 -10  -3    2.20    2.50
   2 -10   3   -1.00    1.00
  -2 -10  -3    1.50    1.60
  -2  10  -3   -0.70    1.20
  -2  10  -3   -1.10    1.90
  -3 -10  -3    0.70    2.20
   3 -10   3    4.00    1.40
  -3  10  -3    0.60    1.40
   2 -11  -3   -0.20    1.00
  -2 -11   3   -0.30    1.40
  -2  11   3    2.00    1.60
   1 -11  -3    3.10    1.80
  -1  11   3    1.00    1.30
   1  11  -3    2.50    3.20
   0 -11   3    9.00    2.80
   0 -11  -3    5.00    2.40
   0  11  -3    8.80    3.00
   0  11  -3    6.90    3.40
   1 -11   3    1.00    1.20
  -1 -11  -3   -0.70    1.50
  -1  11  -3   -0.40    1.60
  -1  11  -3    2.90    2.40
  -2 -11  -3    1.00    1.60
   2 -11   3    0.70    1.30
  -2  11  -3   -1.20    1.40
  -5   0   4    0.90    2.00
   5   0  -4   -0.20    1.70
  -5   0   4    1.30    2.20
  -4   0   4  159.28   13.20
  -4   0   4  155.98   12.60
   4   0  -4  132.89   10.70
   4   0  -4  136.29   12.10
  -4   0   4  146.99   11.90
  -3   0   4    0.90    2.30
  -3   0   4   -1.80    1.60
  -3   0   4    3.30    2.20
   3   0  -4   -0.60    1.90
  -3   0   4    2.00    1.60
   3   0  -4    5.20    2.80
  -3   0   4   -2.90    2.40
  -2   0   4  181.78    8.20
   2   0  -4  186.58   10.10
  -2   0   4  167.38   10.00
   1   0  -4    0.60    0.70
  -1   0   4   -0.60    0.80
  -1   0   4    0.70    0.70
  -1   0   4    1.10    1.30
   0   0   4  516.75   14.60
  -1   0  -4    3.40    1.40
   1   0   4   -0.10    0.70
  -1   0  -4    1.50    0.80
  -2   0  -4 3204.28   81.89
  -2   0  -4 3104.89   81.89
   2   0   4 3081.09   79.99
  -2   0  -4 3154.48   79.59
  -3   0  -4   -2.40    2.50
  -3   0  -4    1.70    2.10
  -3   0  -4    0.10    2.30
  -3   0  -4    0.40    2.00
  -4   0  -4   16.70    5.00
   4   0   4   22.60    5.20
  -4   0  -4   21.20    5.70
  -4   0  -4   16.20    5.50
  -5   0  -4    3.90    4.30
  -5   0  -4    0.40    1.90
  -5   0  -4    4.40    3.00
  -5  -1   4   -2.90    2.20
  -5  -1   4    2.20    2.30
   5   1  -4    2.80    2.30
  -5   1   4    2.00    2.00
  -5   1   4   -2.10    1.70
  -4  -1   4   -0.90    2.00
   4  -1  -4   -1.00    5.60
   4  -1  -4    0.20    1.90
  -4  -1   4   -2.50    1.40
  -4  -1   4   -0.10    2.60
  -4   1   4    3.80    2.70
   4   1  -4   -2.60    3.20
   4   1  -4   -0.20    2.40
  -4   1   4    2.50    2.20
  -4   1   4    2.60    3.60
  -4   1   4   -3.60    1.90
  -3  -1   4  155.38    8.90
  -3  -1   4  163.98   11.80
   3  -1  -4  162.68   11.40
  -3  -1   4  146.59   10.00
  -3  -1   4  151.98   12.10
  -3  -1   4  151.38   10.80
   3  -1  -4  157.58   10.60
  -3   1   4  156.98    9.80
   3   1  -4  153.78   10.40
  -3   1   4  163.38   11.40
  -3   1   4  152.38   11.10
  -3   1   4  147.29    9.90
  -2  -1   4  204.78   11.20
   2  -1  -4  192.38   10.40
  -2  -1   4  189.18    7.90
  -2   1   4  190.18    9.30
  -1  -1   4  487.95   15.70
   1  -1  -4  442.36   14.60
   1   1  -4  457.55   14.60
  -1   1   4  445.76   14.10
  -1   1   4  469.05   14.70
   0  -1  -4   34.50    2.50
   0  -1  -4   36.40    2.70
   0  -1   4   35.90    2.40
   0   1  -4   33.90    2.20
   0   1   4   38.40    2.80
  -1  -1  -4 1981.20   49.70
   1  -1   4 1932.71   47.70
  -1   1  -4 2009.70   49.00
  -1   1  -4 1961.80   47.70
  -1   1  -4 1897.11   50.59
   1   1   4 1937.21   49.50
  -2  -1  -4   21.80    3.40
  -2  -1  -4   17.20    3.70
   2  -1   4   24.20    3.40
  -2   1  -4   20.90    3.60
  -2   1  -4   12.90    3.00
  -2   1  -4   19.40    2.80
  -3  -1  -4   10.70    3.70
  -3  -1  -4   14.90    3.90
  -3  -1  -4   13.50    3.90
  -3  -1  -4   20.40    4.50
  -3  -1  -4   18.00    4.70
  -3   1  -4   25.10    5.30
  -3   1  -4   19.90    4.40
   3   1   4   25.50    5.90
  -3   1  -4   28.30    4.80
  -3   1  -4   19.00    4.90
   4  -1   4  176.68   12.00
   4  -1   4  158.88   14.00
  -4  -1  -4  164.08   14.70
  -4  -1  -4  190.48   14.10
  -4  -1  -4  190.58   13.70
  -4  -1  -4  173.38   14.90
  -4   1  -4  178.18   13.40
  -4   1  -4  184.98   13.60
   4   1   4  186.48   12.40
  -4   1  -4  170.78   13.60
   4   1   4  182.48   13.40
  -4   1  -4  177.68   15.00
  -5  -1  -4    5.00    3.60
  -5  -1  -4    3.30    2.40
  -5  -1  -4    5.80    4.10
  -5   1  -4    4.40    2.70
  -5   1  -4    5.30    2.40
   5  -2  -4    1.30    2.20
  -5  -2   4    2.80    2.00
  -5  -2   4   -0.70    1.60
   5   2  -4   -0.60    1.80
  -5   2   4    0.90    1.70
  -4  -2   4   61.89    8.20
  -4  -2   4   70.59    8.50
   4  -2  -4   62.59    7.80
  -4  -2   4   52.09    8.40
  -4  -2   4   50.89    8.50
  -4   2   4   69.89    8.20
  -4   2   4   58.89    7.80
   4   2  -4   57.99    7.60
  -4   2   4   60.79    8.60
   4   2  -4   57.19    8.40
  -4   2   4   64.99    8.80
  -3  -2   4    0.40    2.40
  -3  -2   4    4.20    3.20
  -3  -2   4    4.20    2.40
  -3  -2   4    6.00    2.20
   3  -2  -4    4.40    2.30
   3  -2  -4    4.10    2.80
  -3  -2   4    2.00    4.00
  -3   2   4   10.30    3.30
  -3   2   4    8.60    3.30
   3   2  -4    7.40    2.40
  -3   2   4   11.50    3.10
  -3   2   4   10.70    4.00
  -3   2   4    8.20    3.00
  -2  -2   4  108.89    5.30
  -2  -2   4  115.49    8.60
   2  -2  -4  109.89    7.80
  -2  -2   4  111.49    5.30
   2  -2  -4  113.89    7.60
  -2   2   4  115.49    7.70
   2   2  -4  110.59    7.50
  -2   2   4  114.39    7.50
  -1  -2   4  428.56   11.10
  -1  -2   4  418.56   13.80
  -1  -2   4  438.96   15.30
   1   2  -4  438.46   14.40
  -1   2   4  459.45   15.20
  -1   2   4  440.56   14.20
   0  -2   4 1869.61   45.50
   0  -2  -4 1784.92   48.50
   0  -2  -4 1928.81   47.50
   0  -2   4 1866.91   47.20
   0   2  -4 1942.81   46.80
   0   2   4 1927.01   48.20
   0   2  -4 1959.30   44.90
   0   2   4 1946.61   47.10
  -1  -2  -4   11.70    2.30
   1  -2   4   14.00    1.30
  -1  -2  -4   10.00    2.60
   1   2   4   15.00    2.40
  -1   2  -4   19.00    2.80
  -2  -2  -4 1232.08   39.50
   2  -2   4 1227.28   33.80
  -2  -2  -4 1229.28   37.20
  -2   2  -4 1233.98   38.20
  -2   2  -4 1176.78   40.10
  -2   2  -4 1196.88   34.50
  -3  -2  -4  100.09    9.70
  -3  -2  -4  108.09    9.80
   3  -2   4   88.29   10.10
  -3  -2  -4   91.79    9.60
  -3  -2  -4  101.59    9.40
  -3  -2  -4   93.19   10.00
  -3   2  -4   91.99    8.70
  -3   2  -4  118.79   10.70
  -3   2  -4   82.29    8.60
  -3   2  -4   83.69    7.60
  -4  -2  -4    7.40    3.10
  -4  -2  -4    4.50    3.30
   4  -2   4   -7.00    4.70
   4  -2   4    9.90    4.30
  -4  -2  -4    0.30    2.80
  -4  -2  -4   -0.30    3.00
   4   2   4    0.40    2.70
  -4   2  -4    0.40    2.60
   4   2   4   -0.10    2.90
  -4   2  -4    2.90    2.60
  -5  -2  -4   19.40    5.60
  -5  -2  -4   11.00    3.60
  -5   2  -4   14.10    4.20
  -5   2  -4   13.10    4.00
  -5  -3   4    0.50    2.00
   5  -3  -4    0.30    2.20
  -5  -3   4    3.50    2.40
  -5   3   4    1.00    1.40
  -5   3   4    0.10    1.90
   5   3  -4    3.80    2.40
  -4  -3   4   -0.50    4.60
  -4  -3   4    8.50    3.80
  -4  -3   4   12.70    5.40
   4  -3  -4   11.90    3.80
  -4  -3   4   10.30    3.80
  -4   3   4    9.60    4.10
  -4   3   4    6.10    3.90
  -4   3   4   11.70    4.00
  -4   3   4    7.00    3.90
  -3  -3   4    4.40    2.80
  -3  -3   4    0.10    2.20
   3  -3  -4    7.10    2.80
   3  -3  -4    1.50    2.70
   3  -3  -4   12.80    4.40
  -3   3   4    3.80    2.90
  -3   3   4    4.10    2.70
  -3   3   4    5.70    2.40
  -3   3   4    2.00    2.30
  -2  -3   4  371.06   12.00
  -2  -3   4  409.86   18.20
   2  -3  -4  386.76   15.90
  -2  -3   4  365.76   12.00
  -2   3   4  395.26   16.20
   2   3  -4  376.66   16.00
  -2   3   4  393.56   17.00
  -2   3   4  381.56   15.40
  -1  -3   4  104.99    6.60
  -1  -3   4  100.99    5.10
  -1  -3   4  100.69    4.50
   1   3  -4   96.59    5.70
  -1   3   4  104.99    5.60
   0  -3   4 3133.49   80.19
   0  -3  -4 3336.67   79.79
   0   3  -4 3280.77   79.59
   0   3  -4 3289.87   75.79
   0   3   4 3235.78   78.39
   0   3   4 3307.07   81.29
  -1  -3  -4 1126.79   33.90
  -1  -3  -4 1092.59   31.50
   1   3   4  993.00   30.80
  -1   3  -4 1077.39   32.00
   2  -3   4  327.37   11.30
  -2  -3  -4  320.67   15.60
  -2  -3  -4  335.97   17.50
  -2   3  -4  328.77   15.00
  -2   3  -4  323.87   16.20
  -3  -3  -4   48.80    7.90
  -3  -3  -4   29.50    6.10
  -3  -3  -4   38.20    6.90
  -3  -3  -4   37.60    6.60
  -3  -3  -4   38.00    6.10
   3  -3   4   30.70    5.70
   3  -3   4   34.00    7.20
  -3   3  -4   44.40    6.30
  -3   3  -4   37.90    6.20
  -3   3  -4   41.10    7.00
  -4  -3  -4    3.60    4.00
  -4  -3  -4    5.30    3.50
  -4  -3  -4    5.30    3.30
   4  -3   4    2.10    3.30
  -4  -3  -4    1.00    2.70
   4   3   4    6.00    3.40
  -4   3  -4    6.00    3.40
  -4   3  -4    4.80    2.90
  -5  -3  -4    4.60    2.30
  -5  -3  -4    2.00    3.10
  -5   3  -4    1.70    3.00
  -5   3  -4    5.40    2.50
   5  -4  -4    3.60    2.90
  -5  -4   4    6.90    2.50
  -5  -4   4    4.40    2.40
  -5   4   4    4.20    2.40
  -5   4   4    3.60    1.80
   5   4  -4    5.20    2.60
  -4  -4   4   37.10    7.10
  -4  -4   4   31.00    8.70
   4  -4  -4   40.20    6.10
  -4  -4   4   39.40    6.50
  -4  -4   4   39.50    9.00
  -4   4   4   38.20    6.10
  -4   4   4   37.00    6.30
  -4   4   4   31.60    6.90
  -4   4   4   34.20    7.00
   4   4  -4   44.90    7.30
  -3  -4   4    4.50    2.80
  -3  -4   4    7.90    3.10
   3  -4  -4    7.90    4.50
  -3  -4   4    7.70    3.30
   3  -4  -4    0.80    2.70
  -3  -4   4    7.90    3.50
   3  -4  -4    2.10    2.40
  -3   4   4    7.80    3.00
   3   4  -4    7.70    3.70
  -3   4   4    9.00    3.40
  -3   4   4    8.00    3.00
  -3   4   4    3.40    3.40
  -3   4   4    7.40    3.40
  -2  -4   4  114.19    9.30
   2  -4  -4  115.39    8.30
  -2  -4   4  101.99    7.20
  -2   4   4  111.19    9.00
  -2   4   4  105.69    7.10
  -2   4   4  101.09    8.10
   2   4  -4  112.09    8.50
  -1  -4   4 1778.72   47.80
  -1  -4   4 1681.33   45.30
  -1  -4   4 1737.93   43.40
   1  -4  -4 1756.02   45.60
  -1   4   4 1646.24   44.80
   1   4  -4 1758.82   46.30
  -1   4   4 1831.52   49.60
   0  -4  -4  117.19    6.50
   0   4   4  107.79    7.30
   0   4   4  112.49    5.30
   0   4  -4  116.29    6.70
  -1  -4  -4  351.46   15.50
  -1  -4  -4  380.16   17.10
  -1  -4  -4  396.56   15.70
  -1   4  -4  374.16   15.80
  -2  -4  -4  101.09    8.80
  -2  -4  -4  102.09    9.60
  -2   4  -4   86.69    7.70
  -2   4  -4  101.39    8.70
   2   4   4   71.49    7.00
   3  -4   4  232.38   17.00
  -3  -4  -4  227.88   17.20
  -3  -4  -4  232.48   17.60
  -3  -4  -4  214.88   15.60
  -3  -4  -4  227.28   14.70
  -3   4  -4  233.68   16.70
  -3   4  -4  233.48   14.80
  -3   4  -4  236.18   14.90
  -4  -4  -4    1.60    3.50
  -4  -4  -4    2.50    3.00
  -4  -4  -4    8.10    3.80
   4  -4   4    4.00    2.70
  -4  -4  -4    9.40    4.60
  -4   4  -4    6.30    3.00
   4   4   4   -0.80    2.90
  -4   4  -4    4.50    2.60
  -5  -4  -4   -0.40    1.30
  -5  -4  -4    2.70    3.00
  -5   4  -4    2.40    1.60
   5   4   4    6.30    3.70
  -5   4  -4    0.40    2.40
   5  -5  -4   -1.00    1.50
  -5  -5   4   -0.90    1.80
   5   5  -4   -0.40    1.80
  -5   5   4    2.10    1.80
  -4  -5   4   14.30    3.90
   4  -5  -4    4.90    3.40
  -4  -5   4    9.70    4.70
  -4  -5   4    9.60    3.80
  -4   5   4    8.60    3.50
  -4   5   4    3.10    3.60
  -4   5   4    9.70    3.90
  -3  -5   4   30.10    5.90
  -3  -5   4    8.20    4.50
   3  -5  -4   20.10    4.90
  -3  -5   4    6.10    3.90
  -3  -5   4   18.40    4.90
   3  -5  -4    9.60    4.10
  -3   5   4   13.10    5.10
  -3   5   4   20.40    4.40
  -3   5   4   18.00    4.80
  -3   5   4   11.20    3.80
   3   5  -4   14.60    4.40
  -3   5   4   23.70    5.70
  -2  -5   4    6.20    3.00
  -2  -5   4    3.40    3.60
   2  -5  -4    4.30    2.00
  -2  -5   4    4.50    2.20
  -2  -5   4   10.10    3.40
   2  -5  -4    4.90    3.10
   2  -5  -4    5.20    2.90
  -2   5   4    4.30    3.10
  -2   5   4    6.70    2.60
  -2   5   4    5.90    2.50
  -2   5   4    2.10    2.10
  -2   5   4    0.90    2.40
   2   5  -4    5.50    2.70
   1  -5  -4  126.99    7.20
  -1  -5   4  136.19    8.40
   1  -5  -4  129.19    8.70
  -1   5   4  132.99    8.40
  -1   5   4  127.59    6.10
   1   5  -4  124.49    7.30
  -1   5   4  132.89    9.50
   1   5  -4  133.39    9.00
   0  -5  -4  244.48   12.10
   0  -5  -4  232.98   10.80
   0   5  -4  223.18   11.20
   0   5   4  237.08   12.50
   0   5  -4  228.98   11.00
   0   5   4  233.58   11.20
  -1  -5  -4  569.54   21.50
  -1  -5  -4  554.54   21.60
  -1  -5  -4  544.05   23.00
   1   5   4  540.15   20.10
  -1   5  -4  544.45   22.00
  -1   5  -4  538.45   20.80
   2  -5   4  111.79   11.30
  -2  -5  -4   97.89    9.10
  -2  -5  -4  116.89   11.00
  -2  -5  -4   96.19    9.80
  -2  -5  -4  121.49   11.90
  -2  -5  -4  114.29   10.30
  -2   5  -4  119.59    9.40
   2   5   4  115.19    8.40
  -2   5  -4  109.89    9.40
  -2   5  -4  107.39   10.00
  -2   5  -4  111.79    6.30
  -3  -5  -4    1.00    2.30
  -3  -5  -4    3.40    2.80
   3  -5   4    0.20    2.90
  -3  -5  -4   -0.50    2.50
  -3  -5  -4   -0.10    3.80
  -3   5  -4    1.40    2.70
  -3   5  -4    2.30    4.80
  -3   5  -4    3.00    2.80
   4  -5   4    6.40    3.70
  -4  -5  -4    4.30    3.10
  -4  -5  -4    3.60    3.70
  -4  -5  -4    8.90    4.00
  -4   5  -4    0.80    2.20
  -4   5  -4    0.30    2.50
  -5  -5  -4    5.80    2.30
   5  -5   4    6.20    2.20
  -5  -5  -4    6.80    3.00
  -5   5  -4    2.80    1.70
   5   5   4    0.90    2.70
   4  -6  -4    7.50    3.30
   4  -6  -4   18.70    4.30
  -4  -6   4   13.30    3.70
   4   6  -4   18.50    5.40
  -4   6   4   12.80    3.60
  -3  -6   4   23.40    6.00
  -3  -6   4   20.00    4.80
   3  -6  -4   26.00    5.50
  -3   6   4   22.40    5.30
  -3   6   4   33.60    5.50
   3   6  -4   37.40    6.60
   2  -6  -4   13.80    4.20
  -2  -6   4   12.00    4.10
  -2  -6   4   10.70    4.00
  -2  -6   4    7.50    3.80
   2  -6  -4    9.40    3.80
   2   6  -4    7.40    3.10
  -2   6   4    7.90    3.40
  -2   6   4    7.70    3.10
  -2   6   4   11.90    3.40
  -1  -6   4  750.82   25.30
   1  -6  -4  761.62   30.10
   1  -6  -4  789.12   24.50
   1  -6  -4  757.82   26.20
   1  -6  -4  730.83   28.70
  -1  -6   4  754.52   29.10
  -1   6   4  783.52   26.70
  -1   6   4  703.23   28.50
   1   6  -4  754.62   27.20
  -1   6   4  732.73   28.00
   1   6  -4  760.82   29.60
   0  -6  -4   17.20    4.10
   0  -6   4   28.80    5.00
   0  -6  -4   15.80    3.70
   0  -6  -4   22.70    4.90
   0  -6  -4   24.70    3.90
   0   6  -4   21.20    3.70
   0   6  -4   18.20    4.00
   0   6   4   24.10    4.90
   0   6   4   15.70    3.50
  -1  -6  -4    9.30    3.70
  -1  -6  -4    0.80    2.10
   1  -6   4    0.30    2.80
  -1  -6  -4    4.30    2.70
   1  -6   4    3.20    2.00
  -1  -6  -4    0.20    2.30
  -1  -6  -4    2.00    2.20
  -1   6  -4    1.10    2.90
  -1   6  -4    3.30    2.40
   1   6   4   -0.80    2.50
  -1   6  -4    1.90    2.20
   1   6   4   -1.40    1.50
   2  -6   4   60.59    9.00
  -2  -6  -4   62.49    7.70
  -2  -6  -4   52.09    8.50
   2  -6   4   61.29    7.70
  -2  -6  -4   54.39    8.40
  -2  -6  -4   57.29    7.70
  -2   6  -4   61.79    7.40
  -2   6  -4   62.19    8.40
  -2   6  -4   65.59    7.30
   2   6   4   64.59    7.00
  -3  -6  -4  219.58   17.70
   3  -6   4  236.48   16.30
  -3  -6  -4  235.88   16.90
  -3  -6  -4  223.98   17.40
  -3  -6  -4  227.68   14.30
   3  -6   4  244.88   18.60
  -3   6  -4  238.48   15.50
  -3   6  -4  230.68   15.30
  -4  -6  -4    1.70    2.90
   4  -6   4    2.90    2.30
  -4  -6  -4    9.10    3.50
   4  -6   4    6.70    3.10
  -4  -6  -4    4.40    3.40
  -4   6  -4    4.50    2.60
  -4   6  -4    4.00    2.50
   4  -7  -4    1.30    1.80
  -4   7   4   -0.10    1.50
  -3  -7   4   25.40    7.90
   3  -7  -4   16.00    4.40
  -3  -7   4   17.40    4.80
  -3  -7   4   20.60    4.70
   3  -7  -4   19.60    5.40
  -3   7   4   21.60    5.10
   3   7  -4   18.40    4.40
  -3   7   4   16.10    4.50
  -2  -7   4   42.20    7.30
   2  -7  -4   45.10    6.60
   2  -7  -4   47.70    7.30
  -2  -7   4   43.50    7.30
  -2  -7   4   48.00    7.90
  -2   7   4   46.80    6.80
  -2   7   4   40.50    5.80
   2   7  -4   44.70    6.80
   1  -7  -4   -1.30    2.10
  -1  -7   4   -1.50    1.30
   1  -7  -4   -1.50    2.10
   1   7  -4   -0.50    1.90
  -1   7   4    1.80    1.70
  -1   7   4    6.10    3.00
   1   7  -4   -0.60    2.00
   0  -7  -4   24.30    5.00
   0  -7  -4   26.30    6.10
   0  -7  -4   21.00    5.20
   0  -7  -4   30.40    6.40
   0  -7  -4   25.80    7.50
   0  -7   4   22.80    5.00
   0   7   4   23.20    4.70
   0   7  -4   30.40    5.70
   0   7  -4   23.80    4.50
   0   7  -4   19.70    4.30
   0   7   4   25.10    5.10
   1  -7   4  157.08   13.50
   1  -7   4  149.19   11.50
  -1  -7  -4  136.39   12.00
  -1  -7  -4  154.08   13.80
  -1  -7  -4  142.79   12.90
  -1  -7  -4  157.58   12.60
   1   7   4  154.58   10.50
  -1   7  -4  164.58   12.30
  -1   7  -4  161.98   11.40
  -1   7  -4  161.88   11.30
   1   7   4  166.48   12.30
   2  -7   4  114.09   12.20
  -2  -7  -4   97.19   10.30
  -2  -7  -4   86.69   10.40
  -2  -7  -4   98.59   10.00
  -2  -7  -4  101.19   11.60
   2  -7   4  105.99    9.90
   2   7   4   95.49    9.40
  -2   7  -4   99.19    9.70
  -2   7  -4   95.79    9.40
   3  -7   4   23.20    5.30
  -3  -7  -4   12.90    4.30
  -3  -7  -4   21.40    5.40
   3  -7   4   15.70    4.70
  -3  -7  -4   12.70    5.40
  -3   7  -4   11.40    3.70
  -3   7  -4   10.60    4.20
  -4  -7  -4   -0.70    2.10
  -4  -7  -4   -1.60    1.90
   4  -7   4   -1.00    1.30
  -4   7  -4    0.60    2.10
  -4   7  -4   -1.30    1.40
  -4  -8   4    1.20    1.70
   4  -8  -4   -0.20    1.30
  -4   8   4    1.30    1.10
  -3  -8   4    1.20    2.10
   3  -8  -4    5.40    3.00
   3  -8  -4    1.50    2.50
  -3   8   4    0.90    2.20
  -3   8   4    3.20    3.80
   3   8  -4   -2.10    2.80
   2  -8  -4   40.10    6.90
  -2  -8   4   49.00    7.60
   2  -8  -4   49.30    7.60
  -2   8   4   47.30    6.50
   2   8  -4   45.70    6.60
  -2   8   4   40.60    6.10
  -1  -8   4  135.39   11.70
   1  -8  -4  130.09   11.80
   1  -8  -4  143.59   11.60
   1   8  -4  139.49   11.70
  -1   8   4  131.09    9.90
   1   8  -4  131.09   10.80
  -1   8   4  147.39   11.30
   0  -8  -4   35.30    6.60
   0  -8  -4   35.70    6.70
   0  -8   4   32.20    5.80
   0   8  -4   28.70    5.50
   0   8   4   28.00    5.70
   0   8  -4   24.80    5.50
   0   8   4   29.50    5.40
  -1  -8  -4   53.79    7.80
  -1  -8  -4   44.10    7.90
   1  -8   4   57.79    7.50
  -1  -8  -4   55.29    7.80
  -1   8  -4   53.29    6.90
   1   8   4   52.89    6.90
   1   8   4   60.09    7.80
  -1   8  -4   53.69    6.90
   2  -8   4    2.60    3.10
  -2  -8  -4    2.80    4.60
  -2  -8  -4   -4.50    3.00
   2  -8   4    2.70    2.80
  -2  -8  -4    1.40    3.30
  -2   8  -4   -0.30    1.80
  -3  -8  -4   -0.20    2.10
  -3  -8  -4   14.20    6.40
   3  -8   4   -0.50    1.50
   3  -8   4   -1.00    2.00
  -3  -8  -4   -1.30    1.60
  -3   8  -4    2.00    2.00
  -3   8  -4   -1.70    1.50
  -4  -8  -4    0.80    2.20
  -4  -8  -4    1.60    1.90
   4  -8   4   -0.10    1.30
  -4   8  -4   -3.00    2.10
   3  -9  -4   -0.20    1.50
  -3   9   4    0.20    1.30
   3   9  -4    2.30    4.10
  -2  -9   4    5.00    3.00
   2  -9  -4    5.70    3.40
   2  -9  -4    7.00    3.40
  -2   9   4    5.70    3.30
  -2   9   4    0.30    2.00
   2   9  -4    4.20    1.90
   1  -9  -4    4.50    2.70
  -1  -9   4    2.60    2.50
   1  -9  -4    1.40    2.60
   1   9  -4    4.00    2.80
   1   9  -4    6.90    2.90
  -1   9   4    8.20    3.10
  -1   9   4    5.30    2.80
   0  -9   4   73.19    8.40
   0  -9  -4   73.89    9.20
   0  -9  -4   84.29    8.90
   0   9  -4   82.19    8.80
   0   9   4   83.89    8.90
   0   9   4   74.69    8.20
   0   9  -4   77.59    8.10
  -1  -9  -4   49.40    7.20
   1  -9   4   55.29    7.30
  -1  -9  -4   53.49    7.70
  -1   9  -4   54.49    6.70
  -1   9  -4   62.49    7.50
   2  -9   4   30.50    5.30
  -2  -9  -4   31.90    5.90
  -2  -9  -4   37.80    6.80
  -2   9  -4   30.90    5.70
  -2   9  -4   36.70    5.60
  -3  -9  -4   28.20    5.90
  -3  -9  -4   42.20    5.30
   3  -9   4   40.60    4.60
  -3   9  -4   34.90    5.00
  -3   9  -4   36.20    4.70
   3 -10  -4   -0.60    1.20
  -3 -10   4   -0.70    1.30
  -3  10   4    1.40    1.40
   2 -10  -4    1.30    1.50
  -2 -10   4   -1.30    1.60
  -2  10   4    0.80    1.60
   2  10  -4    3.90    3.50
   1 -10  -4   20.10    5.10
   1 -10  -4   27.00    5.40
  -1 -10   4   16.80    4.50
   1  10  -4   29.40    5.00
  -1  10   4   31.80    5.10
   0 -10   4    1.20    2.30
   0 -10  -4    2.90    2.40
   0 -10  -4   -3.40    2.30
   0  10  -4    3.70    2.30
   0  10   4   -0.50    1.30
   0  10  -4   -1.60    1.70
  -1 -10  -4   11.40    3.70
   1 -10   4   10.00    3.00
  -1 -10  -4   16.70    4.90
  -1  10  -4    8.60    2.90
  -1  10  -4   18.10    4.10
  -2 -10  -4    2.00    2.20
   2 -10   4   -1.10    1.10
  -2 -10  -4   -2.00    1.40
  -2  10  -4    1.80    1.80
  -2  10  -4    1.20    1.70
  -3 -10  -4    2.20    1.90
  -3  10  -4    0.30    1.30
   2 -11  -4    8.90    2.20
  -2 -11   4    9.10    2.50
  -2  11   4   12.50    2.80
  -1 -11   4    1.10    1.70
   1 -11  -4   -0.20    1.60
   1  11  -4   -1.00    2.40
  -1  11   4    0.80    1.30
   0 -11   4   52.59    5.50
   0 -11  -4   54.19    6.70
   0  11  -4   48.00    5.70
   0  11  -4   55.19    6.30
   1 -11   4    2.90    1.40
  -1 -11  -4    1.20    1.90
  -1  11  -4    1.90    1.60
  -1  11  -4    1.10    2.40
  -2 -11  -4    7.30    2.30
  -2  11  -4   15.00    2.80
  -5   0   5   22.10    4.50
   5   0  -5   19.30    4.60
  -4   0   5   -1.70    1.90
  -4   0   5   -0.40    2.10
   4   0  -5    1.20    2.90
   4   0  -5    0.00    2.60
  -3   0   5  187.58   10.60
   3   0  -5  191.88   11.80
  -3   0   5  201.88   12.90
  -3   0   5  189.98   12.30
   3   0  -5  198.68   13.10
  -3   0   5  195.08   12.60
  -3   0   5  192.48   10.30
  -2   0   5   -0.40    0.70
  -2   0   5   -0.60    1.60
   1   0  -5 2302.07   56.09
  -1   0   5 2332.77   55.79
  -1   0   5 2365.96   58.39
   0   0   5   -0.50    0.80
  -2   0  -5    1.60    1.20
  -2   0  -5   -1.80    0.90
  -2   0  -5   -0.90    1.50
   2   0   5    1.50    1.50
  -3   0  -5  240.58   15.10
  -3   0  -5  247.58   15.20
  -3   0  -5  230.58   14.50
  -3   0  -5  249.28   14.40
  -3   0  -5  231.08   13.70
   4   0   5    3.50    3.30
   4   0   5    9.70    5.10
  -4   0  -5    0.10    3.30
  -4   0  -5   -8.00    4.90
   4   0   5   -4.70    4.00
  -4   0  -5   -0.40    2.20
  -4   0  -5   -0.50    2.50
  -5   0  -5   -1.30    1.40
  -5   0  -5    0.00    2.80
   5  -1  -5    2.80    2.50
  -5  -1   5    5.70    2.30
  -5  -1   5    3.60    2.10
  -5   1   5    1.20    1.90
   5   1  -5    3.90    2.40
  -5   1   5   -1.40    1.90
  -4  -1   5   -4.20    2.60
  -4  -1   5    0.20    2.20
   4  -1  -5   -0.40    3.60
   4  -1  -5    3.90    3.00
  -4   1   5    1.50    2.50
  -4   1   5    3.00    2.30
   4   1  -5    1.80    2.80
  -4   1   5   -2.30    2.50
   4   1  -5    0.70    2.50
  -3  -1   5  170.58   11.80
   3  -1  -5  181.08   12.20
  -3  -1   5  165.88   12.50
  -3  -1   5  157.38   12.50
   3  -1  -5  165.08   10.80
  -3  -1   5  160.28   12.10
  -3  -1   5  176.98    8.80
   3   1  -5  171.98   11.20
  -3   1   5  176.48   12.00
  -3   1   5  176.68   11.80
  -3   1   5  165.58   10.40
  -3   1   5  182.98   12.00
  -3   1   5  175.58   10.60
  -2  -1   5   75.69    6.80
  -2  -1   5   70.79    4.10
  -2   1   5   74.39    5.50
  -2   1   5   79.69    6.30
   1  -1  -5 8451.65  206.18
  -1  -1   5 8941.01  206.08
  -1  -1   5 8993.50  207.38
  -1   1   5 8718.83  205.38
   1   1  -5 8889.11  206.28
  -1   1   5 8649.93  206.08
   0  -1   5  580.14   16.30
   0  -1  -5  570.64   16.70
   0   1   5  590.54   16.90
   0   1  -5  565.64   15.70
   1  -1   5 2375.76   58.09
  -1  -1  -5 2391.26   62.29
  -1  -1  -5 2441.86   60.39
   1   1   5 2381.66   60.09
  -1   1  -5 2462.25   61.59
  -1   1  -5 2327.17   59.29
  -1   1  -5 2412.56   58.19
  -2  -1  -5  628.04   23.70
   2  -1   5  610.64   20.40
  -2  -1  -5  599.34   21.60
  -2   1  -5  633.04   21.90
  -2   1  -5  614.74   20.10
  -2   1  -5  642.54   23.40
   3  -1   5  197.08   13.70
  -3  -1  -5  196.78   13.30
  -3  -1  -5  191.48   13.00
  -3  -1  -5  196.48   14.00
  -3  -1  -5  193.38   13.30
  -3  -1  -5  198.58   12.90
  -3   1  -5  192.08   12.60
   3   1   5  188.78   12.70
  -3   1  -5  210.58   13.90
  -3   1  -5  209.38   13.10
  -3   1  -5  191.78   12.90
  -4  -1  -5   -2.40    2.10
   4  -1   5   -2.50    3.00
  -4  -1  -5    4.10    2.50
  -4  -1  -5   -0.40    2.40
  -4  -1  -5   -3.70    3.70
   4   1   5    5.50    3.00
  -4   1  -5   -0.90    2.30
  -4   1  -5    1.60    3.50
  -4   1  -5    4.70    3.10
   4   1   5   -1.00    3.10
  -5  -1  -5    6.20    3.40
  -5  -1  -5   -1.90    4.30
  -5  -1  -5   -1.40    1.30
  -5   1  -5   -0.70    1.50
  -5   1  -5    0.60    2.50
   5  -2  -5    7.20    2.50
  -5  -2   5    6.30    2.60
  -5  -2   5   -1.50    1.80
   5   2  -5    4.80    2.50
  -5   2   5    3.80    2.30
  -5   2   5    2.40    2.10
   4  -2  -5   34.20    6.30
  -4  -2   5   38.40    6.40
  -4  -2   5   23.10    5.80
  -4  -2   5   30.30    5.40
  -4   2   5   34.10    6.90
   4   2  -5   32.70    6.60
  -4   2   5   28.40    6.30
   4   2  -5   34.10    6.30
  -4   2   5   35.90    6.60
  -3  -2   5  361.76   18.30
  -3  -2   5  326.07   19.10
   3  -2  -5  347.07   16.50
   3  -2  -5  361.56   18.20
  -3  -2   5  351.46   17.60
  -3   2   5  344.77   17.10
   3   2  -5  354.96   17.20
  -3   2   5  345.77   17.70
  -3   2   5  343.77   17.70
  -3   2   5  346.67   17.70
  -3   2   5  331.67   15.90
  -2  -2   5   43.60    2.50
  -2  -2   5   46.10    2.50
  -2  -2   5   46.30    5.60
   2  -2  -5   45.40    5.10
  -2   2   5   47.40    4.70
  -2   2   5   48.60    4.90
   2   2  -5   47.40    5.00
  -1  -2   5  780.02   23.50
  -1  -2   5  753.12   21.80
  -1   2   5  756.92   22.20
  -1   2   5  772.92   23.00
   1   2  -5  761.12   22.40
   0  -2   5  109.79    4.50
   0  -2  -5  105.89    5.50
   0   2  -5  102.19    3.70
   0   2   5  110.29    5.40
   0   2  -5  102.39    4.80
  -1  -2  -5 4704.53  116.19
   1  -2   5 4587.24  111.39
  -1  -2  -5 4987.70  119.09
   1   2   5 4771.52  116.09
  -1   2  -5 4828.82  111.49
  -1   2  -5 4806.12  116.89
  -2  -2  -5  122.19    8.60
  -2  -2  -5  133.59   10.20
   2  -2   5  139.39    7.10
  -2  -2  -5  134.49    9.00
  -2   2  -5  131.79    7.60
  -2   2  -5  135.29    9.50
  -2   2  -5  131.79    9.60
  -3  -2  -5  136.39   11.60
  -3  -2  -5  127.39   12.10
   3  -2   5  144.09   11.90
  -3  -2  -5  127.19   10.50
  -3  -2  -5  145.19   16.70
  -3  -2  -5  145.49   11.70
  -3   2  -5  134.99   10.50
  -3   2  -5  128.89   10.40
  -3   2  -5  147.79    9.90
  -3   2  -5  131.19   11.20
   4  -2   5    6.20    3.70
  -4  -2  -5    3.10    3.10
  -4  -2  -5    7.80    4.80
  -4  -2  -5    2.90    3.90
  -4  -2  -5    5.30    3.20
  -4   2  -5    4.60    3.30
  -4   2  -5   10.40    4.00
   4   2   5    4.50    3.10
   4   2   5   12.20    4.60
  -5  -2  -5    0.20    1.80
  -5  -2  -5    3.50    4.80
  -5  -2  -5   -0.50    4.60
  -5   2  -5    4.70    2.80
  -5   2  -5    3.30    2.30
  -5  -3   5   -1.40    1.40
   5  -3  -5    3.90    2.20
  -5  -3   5   -2.70    1.90
  -5   3   5    0.80    1.60
  -5   3   5   -0.80    1.80
   5   3  -5    1.40    2.60
  -4  -3   5    6.70    3.60
   4  -3  -5    9.90    4.00
  -4  -3   5   12.50    5.20
  -4  -3   5   10.70    4.30
  -4   3   5    2.90    4.70
   4   3  -5   18.90    4.40
  -4   3   5   15.00    4.20
  -4   3   5   10.30    4.20
  -4   3   5    6.60    3.60
  -3  -3   5    0.90    2.50
   3  -3  -5    3.10    2.50
  -3  -3   5   -0.10    2.30
  -3  -3   5    1.50    1.40
   3  -3  -5    5.40    3.90
  -3   3   5   -0.10    2.00
  -3   3   5    1.20    2.10
   3   3  -5   -1.20    1.50
  -3   3   5    0.50    2.40
  -3   3   5   -1.50    1.40
  -3   3   5   -3.60    2.30
   2  -3  -5  194.88   10.60
  -2  -3   5  177.78    9.90
  -2  -3   5  191.08   11.60
  -2   3   5  180.58   10.00
  -2   3   5  186.38    9.90
  -2   3   5  187.98   10.90
  -1  -3   5  625.94   18.00
  -1  -3   5  589.44   15.90
  -1  -3   5  613.34   20.00
  -1   3   5  609.74   18.80
  -1   3   5  592.34   20.40
   1   3  -5  614.24   19.10
   0  -3   5  448.36   15.60
   0  -3  -5  488.95   15.70
   0  -3   5  476.15   12.50
   0   3   5  477.25   16.70
   0   3   5  494.35   14.80
   0   3  -5  468.85   15.00
   0   3  -5  467.35   11.80
  -1  -3  -5  161.28    8.80
  -1  -3  -5  145.29    9.50
   1   3   5  151.58    8.40
  -1   3  -5  160.88    9.00
  -2  -3  -5  140.79   10.00
   2  -3   5  140.99    6.20
  -2  -3  -5  130.99   10.80
  -2   3  -5  143.89    9.30
  -2   3  -5  145.19   10.50
   3  -3   5   51.19    7.80
  -3  -3  -5   45.80    7.50
  -3  -3  -5   53.59    7.10
  -3  -3  -5   40.60    6.90
  -3  -3  -5   39.50    8.90
  -3  -3  -5   54.19    7.20
  -3   3  -5   48.60    7.00
  -3   3  -5   42.50    7.70
  -3   3  -5   52.79    7.00
  -4  -3  -5    0.10    3.30
   4  -3   5    5.40    3.70
  -4  -3  -5   -1.50    2.20
  -4  -3  -5   -0.30    2.90
  -4  -3  -5    0.90    3.70
  -4   3  -5    2.50    2.80
  -4   3  -5    0.80    2.20
   4   3   5    0.50    2.30
   4   3   5   -3.60    2.60
  -5  -3  -5    9.70    3.10
  -5  -3  -5    3.70    3.80
  -5   3  -5   18.60    3.90
  -5   3  -5    6.40    3.30
  -5  -4   5    5.80    3.10
   5  -4  -5    6.90    2.70
  -5  -4   5    1.20    1.70
  -5   4   5    7.40    2.60
  -5   4   5    2.00    1.50
   5   4  -5   -0.80    1.80
  -4  -4   5   32.20    6.30
  -4  -4   5   23.30    5.90
   4  -4  -5   27.30    5.50
  -4  -4   5   17.40    6.30
  -4   4   5   19.10    4.90
   4   4  -5   23.50    5.60
  -4   4   5   19.20    5.20
  -4   4   5   22.10    6.70
   3  -4  -5   61.69    8.40
  -3  -4   5   44.70    7.00
  -3  -4   5   63.99    8.30
   3  -4  -5   56.29    7.10
   3  -4  -5   57.29    7.40
  -3  -4   5   43.20    6.10
  -3  -4   5   46.80    7.40
   3   4  -5   49.90    7.00
  -3   4   5   57.79    6.60
  -3   4   5   64.89    6.90
  -3   4   5   47.30    7.90
  -3   4   5   58.79    7.40
  -3   4   5   51.09    7.60
  -2  -4   5   39.90    5.60
   2  -4  -5   33.80    5.20
  -2  -4   5   35.70    4.20
   2   4  -5   38.10    5.40
  -2   4   5   30.00    4.60
  -2   4   5   42.60    6.00
  -2   4   5   39.50    4.30
   1  -4  -5   43.90    4.00
   1  -4  -5   40.70    4.80
  -1  -4   5   44.90    3.60
  -1  -4   5   46.00    3.30
  -1  -4   5   42.50    4.40
  -1   4   5   44.50    5.10
   1   4  -5   51.29    4.20
  -1   4   5   46.10    3.90
   0  -4  -5  565.74   18.40
   0   4   5  546.65   16.40
   0   4   5  469.65   18.90
   0   4  -5  552.24   17.90
  -1  -4  -5  597.84   22.30
  -1  -4  -5  618.64   22.10
  -1  -4  -5  659.13   24.50
  -1   4  -5  615.74   22.50
  -2  -4  -5  234.98   14.10
   2  -4   5  225.08   15.40
  -2  -4  -5  242.78   13.90
  -2  -4  -5  235.68   15.60
  -2   4  -5  235.28   13.00
  -2   4  -5  233.38   14.20
  -3  -4  -5   47.30    7.30
  -3  -4  -5   42.70    8.00
   3  -4   5   40.20    7.30
  -3  -4  -5   44.20    8.30
  -3  -4  -5   48.30    7.10
  -3   4  -5   47.30    8.20
  -3   4  -5   37.20    6.10
  -3   4  -5   47.90    6.90
   4  -4   5   52.89    8.10
  -4  -4  -5   52.89    7.40
  -4  -4  -5   42.50    9.10
  -4  -4  -5   62.19    8.40
  -4   4  -5   53.49    7.20
  -4   4  -5   45.70    6.90
   4   4   5   59.19    7.20
  -5  -4  -5   -0.60    2.90
  -5  -4  -5   -0.30    2.00
   5   4   5   -1.80    3.30
  -5   4  -5   -1.40    2.60
  -5   4  -5    1.60    1.50
   5  -5  -5   -0.60    1.20
  -5  -5   5    0.50    1.20
  -5   5   5   -1.60    1.20
   5   5  -5    0.70    1.90
  -4  -5   5   -0.80    3.10
   4  -5  -5    1.30    2.50
  -4  -5   5    2.10    2.00
  -4   5   5    1.20    2.20
  -4   5   5   -3.70    2.00
   4   5  -5    7.40    3.50
  -3  -5   5   11.60    4.00
  -3  -5   5   13.80    4.50
   3  -5  -5    6.90    3.30
  -3  -5   5    3.60    3.30
  -3  -5   5   11.90    4.00
  -3   5   5    7.50    3.40
  -3   5   5   10.80    4.00
  -3   5   5   17.60    6.10
  -3   5   5    4.40    2.90
   3   5  -5   11.70    4.00
  -3   5   5    9.90    3.60
  -2  -5   5   86.69    8.30
   2  -5  -5   98.89    9.20
  -2  -5   5   86.69    6.40
  -2  -5   5   89.29    8.90
   2  -5  -5   81.69    8.00
   2  -5  -5   90.69    7.10
  -2   5   5   92.99    8.70
  -2   5   5   89.89    8.80
  -2   5   5   92.09    7.10
  -2   5   5   84.79    7.40
   2   5  -5   94.09    8.70
   1  -5  -5  150.58    8.20
   1  -5  -5  154.18    9.80
  -1  -5   5  142.49    8.50
  -1   5   5  148.19    7.10
  -1   5   5  150.78    8.80
   1   5  -5  149.49    9.60
   1   5  -5  136.49    7.80
   0  -5  -5  118.69    8.20
   0  -5  -5  117.19    7.50
   0   5  -5  120.59    7.40
   0   5   5  110.99    7.40
   0   5   5  111.79    8.50
   0   5  -5  101.59    7.20
  -1  -5  -5  116.79    8.50
  -1  -5  -5  110.79    8.60
  -1  -5  -5  124.39   10.10
  -1   5  -5  108.59    8.40
   1   5   5  119.19    8.10
  -1   5  -5  129.09    9.30
  -2  -5  -5  305.77   19.30
  -2  -5  -5  310.97   19.10
   2  -5   5  332.87   19.40
  -2  -5  -5  300.07   17.90
  -2  -5  -5  319.27   17.90
  -2   5  -5  310.77   16.40
   2   5   5  276.27   13.90
  -2   5  -5  311.87   17.70
  -2   5  -5  314.57   16.00
  -3  -5  -5   45.60    6.80
   3  -5   5   29.70    7.20
  -3  -5  -5   38.90    7.00
  -3  -5  -5   36.00    7.70
  -3  -5  -5   49.00    8.80
  -3   5  -5   40.40    6.60
  -3   5  -5   39.00    6.50
  -4  -5  -5   -3.40    3.90
  -4  -5  -5    2.80    4.20
  -4  -5  -5    3.40    2.90
   4  -5   5    0.30    2.20
  -4  -5  -5    2.50    4.00
  -4   5  -5   -0.60    2.10
  -4   5  -5    1.80    2.10
   4   5   5   -2.40    2.30
   5  -5   5    1.50    1.40
  -5  -5  -5    0.50    1.60
  -5  -5  -5    5.40    3.70
  -5   5  -5   -0.80    1.70
   5   5   5   -1.90    2.20
  -5   5  -5    1.10    2.80
   4  -6  -5   16.80    4.70
  -4  -6   5   10.80    4.40
   4  -6  -5    6.50    2.90
  -4   6   5   11.70    3.80
   4   6  -5   12.10    4.00
   3  -6  -5   47.00    6.80
  -3  -6   5   38.60    7.80
  -3  -6   5   44.40    6.90
  -3  -6   5   47.60    8.10
  -3   6   5   51.79    7.40
  -3   6   5   55.49    6.40
   3   6  -5   34.70    7.10
   2  -6  -5   40.20    7.60
  -2  -6   5   30.10    6.20
   2  -6  -5   41.10    6.60
  -2  -6   5   49.70    6.80
   2  -6  -5   40.00    7.50
  -2  -6   5   33.10    6.20
  -2   6   5   40.80    6.30
  -2   6   5   31.90    6.40
  -2   6   5   29.20    5.20
   2   6  -5   43.40    6.40
   1  -6  -5   12.00    3.30
  -1  -6   5   14.20    3.20
  -1  -6   5    8.50    3.40
   1  -6  -5   11.90    3.10
   1  -6  -5   10.10    3.90
   1  -6  -5   10.30    3.30
  -1   6   5    9.80    3.40
   1   6  -5   10.40    3.10
  -1   6   5    9.90    3.10
  -1   6   5    9.20    3.20
   0  -6  -5  273.17   15.60
   0  -6  -5  272.87   13.30
   0  -6  -5  269.07   13.90
   0  -6   5  267.97   14.10
   0  -6  -5  282.27   15.00
   0   6  -5  277.27   13.50
   0   6   5  270.47   14.60
   0   6   5  266.57   12.80
   0   6  -5  283.17   13.40
  -1  -6  -5   11.10    3.20
   1  -6   5   15.40    4.50
  -1  -6  -5    6.30    3.50
   1  -6   5   10.20    2.80
  -1  -6  -5    3.70    3.20
  -1  -6  -5    6.10    2.60
  -1  -6  -5    9.00    3.70
  -1   6  -5    8.50    2.70
  -1   6  -5   -0.20    3.20
   1   6   5    2.80    2.80
   1   6   5    5.90    2.80
  -1   6  -5    5.00    2.80
   2  -6   5   20.20    5.50
   2  -6   5   22.60    5.10
  -2  -6  -5   15.20    4.10
  -2  -6  -5   13.00    4.80
  -2  -6  -5   21.50    5.10
  -2  -6  -5   25.10    6.10
  -2   6  -5   13.60    4.80
  -2   6  -5   22.10    5.00
  -2   6  -5   24.20    5.00
  -3  -6  -5   10.10    4.20
   3  -6   5   13.20    3.80
   3  -6   5   14.10    5.00
  -3  -6  -5    9.40    4.20
  -3  -6  -5   13.20    5.30
  -3  -6  -5   22.10    7.30
  -3   6  -5   16.60    4.40
  -3   6  -5   16.00    4.80
  -4  -6  -5    8.20    3.80
  -4  -6  -5    9.00    3.60
   4  -6   5    9.80    3.60
   4  -6   5    7.90    3.00
  -4  -6  -5   12.70    5.40
  -4   6  -5   13.10    3.60
  -4   6  -5   10.50    3.20
   4   6   5    8.50    3.10
   4  -7  -5    2.00    1.40
   4  -7  -5    2.10    2.80
  -4  -7   5    2.60    2.40
  -4   7   5    1.90    1.60
   3  -7  -5   31.50    6.50
  -3  -7   5   31.30    6.70
   3  -7  -5   35.50    6.20
  -3   7   5   25.90    6.00
  -3   7   5   30.00    6.00
   3   7  -5   29.20    6.10
   2  -7  -5   10.00    3.30
  -2  -7   5    3.20    4.40
  -2  -7   5    5.40    4.50
  -2  -7   5    4.60    3.70
  -2   7   5    1.40    2.10
  -2   7   5    8.20    2.90
   2   7  -5    4.20    2.70
   1  -7  -5    1.90    3.80
   1  -7  -5    4.70    3.00
  -1  -7   5    8.00    3.50
   1  -7  -5    6.00    2.30
  -1   7   5    4.40    2.10
  -1   7   5    5.90    2.90
  -1   7   5    6.60    3.40
   1   7  -5    2.00    1.90
   1   7  -5    5.50    2.70
   0  -7  -5    2.10    2.90
   0  -7  -5    6.00    3.80
   0  -7  -5    5.40    3.30
   0  -7   5    4.90    2.90
   0  -7  -5    1.30    4.30
   0  -7  -5    2.70    2.80
   0   7  -5    3.20    2.40
   0   7  -5    4.60    3.50
   0   7   5   11.00    3.00
   0   7   5   10.30    3.30
   0   7  -5    2.40    2.50
  -1  -7  -5   25.90    5.50
  -1  -7  -5   28.50    6.20
  -1  -7  -5   25.80    5.50
   1  -7   5   23.30    4.40
   1  -7   5   25.60    6.00
  -1  -7  -5   25.30    6.00
  -1   7  -5   26.60    5.00
   1   7   5   22.90    5.30
  -1   7  -5   24.00    5.00
   1   7   5   18.60    3.90
  -1   7  -5   30.00    5.30
   2  -7   5   38.80    7.40
  -2  -7  -5   32.30    7.20
   2  -7   5   25.80    5.50
  -2  -7  -5   37.50    8.30
  -2  -7  -5   18.60    5.00
  -2  -7  -5   23.60    5.40
  -2   7  -5   23.40    5.60
  -2   7  -5   28.30    5.50
   3  -7   5    2.40    2.20
  -3  -7  -5   -0.80    3.80
  -3  -7  -5    4.10    3.90
  -3  -7  -5    5.80    3.00
   3  -7   5    7.20    3.40
  -3   7  -5    4.30    2.10
  -3   7  -5    2.10    2.40
   4  -7   5    2.00    1.60
  -4  -7  -5    6.30    3.80
   4  -7   5   -0.60    2.00
  -4  -7  -5   -1.20    1.80
  -4   7  -5    0.70    1.60
   4   7   5    0.40    2.60
  -4  -8   5    2.80    2.00
   4  -8  -5    1.30    1.40
  -4   8   5    1.90    1.30
   3  -8  -5    6.70    3.20
   3  -8  -5   25.60    5.00
  -3  -8   5    8.00    3.10
   3   8  -5   15.20    4.20
  -3   8   5   13.90    3.80
  -2  -8   5    6.70    3.50
   2  -8  -5    7.80    3.50
   2  -8  -5    7.30    3.30
  -2   8   5   12.10    3.70
  -2   8   5    8.70    3.00
   2   8  -5    6.50    2.80
   1  -8  -5    5.30    3.00
  -1  -8   5    3.50    3.10
   1  -8  -5    3.10    2.70
  -1   8   5    8.90    2.80
  -1   8   5    3.60    2.80
   1   8  -5    5.30    2.40
   1   8  -5    2.00    2.40
   0  -8  -5    8.60    3.40
   0  -8  -5    9.10    3.40
   0  -8   5   11.50    3.80
   0   8   5    6.70    2.90
   0   8  -5   15.30    4.20
   0   8   5    5.80    3.30
   0   8  -5    6.00    3.20
   1  -8   5  152.28   13.60
   1  -8   5  157.08   11.80
  -1  -8  -5  154.38   13.00
  -1  -8  -5  143.29   12.90
  -1  -8  -5  157.08   13.10
   1   8   5  145.69   10.30
  -1   8  -5  163.38   11.50
   1   8   5  160.68   12.40
  -1   8  -5  149.88   11.50
  -2  -8  -5    6.30    3.60
  -2  -8  -5    3.30    3.00
  -2  -8  -5    3.10    4.50
   2  -8   5    8.90    3.00
   2  -8   5    2.20    3.10
  -2   8  -5   12.10    3.60
  -2   8  -5   -1.10    2.10
   3  -8   5   -2.40    2.10
  -3  -8  -5   -1.60    2.10
  -3  -8  -5    2.50    2.30
  -3  -8  -5   -0.20    4.90
   3  -8   5    5.00    2.30
  -3   8  -5    4.10    2.50
  -3   8  -5    5.70    2.50
  -4  -8  -5   -0.90    1.40
   4  -8   5    0.80    1.50
  -4  -8  -5   -1.30    1.80
  -4   8  -5    2.50    1.70
   4   8   5   -0.40    1.50
  -4   8  -5   -1.20    2.00
   3  -9  -5    1.10    1.40
  -3  -9   5    3.60    2.10
  -3   9   5    3.50    1.70
   3   9  -5    1.80    3.20
  -2  -9   5    5.60    2.40
   2  -9  -5    5.70    3.00
   2  -9  -5    1.80    2.40
  -2   9   5    1.50    1.90
   2   9  -5    3.90    2.20
   1  -9  -5   28.70    6.20
   1  -9  -5   17.30    4.80
  -1   9   5   27.80    5.70
  -1   9   5   23.70    5.70
   1   9  -5   31.40    5.50
   0  -9  -5   91.59   10.30
   0  -9  -5   86.19    9.40
   0  -9   5   97.09    9.70
   0   9  -5   83.09    9.40
   0   9  -5   94.59    9.10
   0   9   5   94.19    8.60
   0   9   5   94.09    9.30
  -1  -9  -5   61.89    8.10
   1  -9   5   58.09    7.20
  -1  -9  -5   56.09    8.20
  -1   9  -5   62.99    7.30
  -1   9  -5   63.59    7.70
   2  -9   5    1.00    2.10
  -2  -9  -5    7.50    3.50
  -2  -9  -5    6.90    3.40
  -2   9  -5    4.80    2.90
  -2   9  -5    1.40    2.20
  -3  -9  -5    1.00    2.10
  -3  -9  -5   -1.90    2.40
   3  -9   5    4.10    1.70
  -3   9  -5    1.00    1.80
  -3   9  -5    4.60    2.00
   3 -10  -5    0.90    1.40
  -3 -10   5   -1.20    1.10
  -3  10   5    1.40    1.20
  -2 -10   5    0.50    1.40
   2 -10  -5   -5.20    3.70
   2 -10  -5    0.30    1.60
   2  10  -5    3.00    3.00
  -2  10   5    2.20    1.40
   1 -10  -5   -1.80    1.60
  -1 -10   5    0.90    1.90
   1 -10  -5   -3.60    2.00
   1  10  -5    2.60    2.10
  -1  10   5   -1.70    1.40
   0 -10  -5    0.10    2.20
   0 -10   5   -1.20    1.60
   0 -10  -5   -0.40    2.20
   0  10   5    2.80    2.20
   0  10  -5   -0.80    1.90
   0  10  -5    0.30    1.90
  -1 -10  -5    1.80    2.00
   1 -10   5    0.20    1.60
  -1 -10  -5    0.40    2.00
  -1  10  -5   -2.00    1.60
  -1  10  -5    0.60    1.90
  -2 -10  -5    2.10    1.80
   2 -10   5    2.10    1.70
  -2 -10  -5    0.90    2.40
  -2  10  -5    1.00    1.80
  -2  10  -5    2.50    1.90
  -2 -11   5    6.60    2.00
   2 -11  -5    4.60    1.90
  -2  11   5    5.00    1.80
   1 -11  -5    2.20    1.80
  -1 -11   5   -0.40    1.20
   1  11  -5    1.20    2.10
  -1  11   5    1.20    1.50
   0 -11  -5    1.70    1.50
   0 -11  -5   -0.60    3.10
   0 -11   5    4.10    2.00
   0  11  -5    5.20    2.40
  -1 -11  -5    7.30    3.30
  -1 -11  -5    3.00    2.20
  -1  11  -5   -0.30    1.40
   5   0  -6   -1.90    1.50
  -5   0   6    0.50    1.90
  -5   0   6    1.40    2.20
  -4   0   6   13.30    3.90
  -4   0   6    9.60    3.50
   4   0  -6    7.60    3.70
   4   0  -6   15.40    4.40
  -4   0   6   12.00    4.00
  -3   0   6    0.90    1.70
  -3   0   6   -0.70    1.40
  -3   0   6   -0.80    2.00
   3   0  -6   -2.20    2.40
  -3   0   6   -4.40    2.20
   3   0  -6   -1.40    1.70
  -2   0   6 1965.00   50.59
  -2   0   6 2064.79   54.89
   2   0  -6 1969.50   57.69
  -1   0   6   -0.30    0.50
   1   0  -6    0.40    0.70
  -1   0   6   -1.20    1.00
   0   0   6 4124.29  101.39
   0   0  -6 4354.16  100.99
  -1   0  -6    3.40    1.10
  -1   0  -6    2.50    1.50
  -2   0  -6 1065.89   31.80
  -2   0  -6 1088.99   33.90
   2   0   6 1014.90   32.10
  -2   0  -6 1049.89   34.30
  -3   0  -6    1.40    2.40
   3   0   6   -1.00    3.70
  -3   0  -6    4.10    2.20
  -3   0  -6   -3.60    2.70
  -3   0  -6   -2.20    2.60
  -3   0  -6   -0.80    1.80
  -4   0  -6   20.20    5.90
  -4   0  -6   33.70    7.00
   4   0   6   18.00    5.90
  -4   0  -6   32.00    6.50
   4   0   6   30.20    6.50
  -5   0  -6   -1.50    2.40
  -5   0  -6    1.30    1.40
  -5  -1   6   -2.90    1.80
   5  -1  -6   -0.90    1.60
   5   1  -6   -1.20    1.90
  -5   1   6   -2.30    2.10
  -4  -1   6   34.30    5.90
   4  -1  -6   31.80    6.00
  -4  -1   6   33.60    6.80
  -4  -1   6   28.00    6.30
   4  -1  -6   23.70    5.50
  -4   1   6   37.60    6.30
  -4   1   6   32.90    6.00
   4   1  -6   29.80    6.50
  -4   1   6   41.40    7.30
   4   1  -6   32.50    5.80
  -3  -1   6   12.00    3.50
  -3  -1   6    4.50    2.40
  -3  -1   6    0.50    1.80
   3  -1  -6    1.70    2.10
   3  -1  -6    5.60    2.60
  -3  -1   6    2.20    2.40
   3   1  -6    2.80    2.20
  -3   1   6    4.70    3.30
  -3   1   6    5.50    2.60
  -3   1   6    6.30    2.50
  -3   1   6    0.50    2.30
  -2  -1   6   20.30    3.40
   2  -1  -6   19.50    3.60
  -2  -1   6   18.30    3.60
  -2  -1   6   20.50    1.90
  -2   1   6   15.90    3.10
   2   1  -6   15.00    3.30
  -2   1   6   14.80    2.70
   1  -1  -6 2615.24   66.19
  -1  -1   6 2618.14   65.89
  -1   1   6 2703.93   66.29
  -1   1   6 2653.73   64.99
   1   1  -6 2671.73   66.19
   0  -1  -6 3278.57   76.99
   0  -1   6 3170.98   76.69
   0  -1  -6 3138.29   76.99
   0   1   6 3090.89   77.19
   1  -1   6  524.15   15.10
  -1  -1  -6  519.05   17.00
   1   1   6  541.35   17.00
  -1   1  -6  505.35   17.60
  -1   1  -6  505.65   15.10
  -1   1  -6  525.25   16.40
  -2  -1  -6  327.97   14.30
   2  -1   6  294.97   12.70
  -2  -1  -6  320.07   15.80
  -2   1  -6  321.07   15.50
  -2   1  -6  320.97   14.00
  -2   1  -6  317.27   12.60
  -3  -1  -6   36.10    6.00
  -3  -1  -6   40.50    6.40
  -3  -1  -6   44.80    6.40
   3  -1   6   44.20    7.70
  -3  -1  -6   53.29    7.30
  -3  -1  -6   40.10    6.70
  -3   1  -6   46.70    6.40
  -3   1  -6   35.10    5.80
  -3   1  -6   44.40    6.10
  -3   1  -6   35.70    6.90
   3   1   6   41.70    5.90
  -4  -1  -6  140.79   13.30
  -4  -1  -6  175.88   13.90
   4  -1   6  152.08   12.70
  -4  -1  -6  148.19   12.80
  -4  -1  -6  134.49   14.20
  -4   1  -6  168.58   13.10
   4   1   6  152.88   12.70
  -4   1  -6  144.79   12.30
   4   1   6  161.08   11.10
  -4   1  -6  153.08   12.60
  -5  -1  -6   -4.30    2.90
  -5  -1  -6    5.40    2.70
  -5   1  -6    1.70    2.50
  -5   1  -6   -1.90    2.10
   5  -2  -6   -0.90    1.90
  -5  -2   6    0.40    2.10
   5   2  -6   -1.00    1.90
  -5   2   6    1.50    1.90
  -5   2   6    2.00    1.60
  -4  -2   6    1.60    2.10
  -4  -2   6    1.80    1.70
   4  -2  -6   -3.50    4.10
  -4  -2   6    3.00    3.30
   4  -2  -6    2.00    2.40
  -4   2   6    2.20    2.50
  -4   2   6    0.10    3.30
   4   2  -6   -0.90    2.60
  -4   2   6    6.70    2.60
   4   2  -6    0.40    2.30
  -3  -2   6    1.40    2.80
  -3  -2   6    3.40    1.90
   3  -2  -6    9.10    2.90
   3  -2  -6    1.80    2.50
  -3  -2   6   -1.40    2.00
  -3   2   6    4.10    3.20
  -3   2   6    4.50    3.10
  -3   2   6    7.20    2.70
   3   2  -6    7.30    2.60
  -3   2   6    2.50    2.00
  -3   2   6    6.80    3.10
  -2  -2   6 1070.49   35.40
  -2  -2   6 1085.69   33.30
   2  -2  -6 1094.19   33.80
   2   2  -6 1109.59   33.50
  -2   2   6 1110.79   33.50
  -2   2   6 1095.29   33.10
  -1  -2   6  121.89    6.20
  -1  -2   6  130.79    7.30
  -1   2   6  129.89    6.80
   1   2  -6  121.09    6.50
  -1   2   6  122.89    6.70
   0  -2  -6  196.58    8.40
   0  -2   6  199.38    7.30
   0   2  -6  206.58    7.50
   0   2   6  196.88    8.30
  -1  -2  -6 1102.59   31.70
   1   2   6 1057.59   31.20
  -1   2  -6 1110.09   27.20
  -1   2  -6 1089.59   31.90
   2  -2   6 2032.20   52.99
  -2  -2  -6 2151.58   60.89
  -2  -2  -6 1991.10   57.39
  -2  -2  -6 2065.59   58.09
  -2   2  -6 2065.29   54.49
  -2   2  -6 2110.09   59.19
  -2   2  -6 1988.60   56.69
  -3  -2  -6   49.80    6.60
  -3  -2  -6   49.30    7.80
   3  -2   6   40.70    7.00
  -3  -2  -6   45.60    6.90
  -3  -2  -6   47.40    7.40
  -3   2  -6   48.80    7.30
  -3   2  -6   39.50    6.50
  -3   2  -6   37.00    5.90
  -3   2  -6   45.40    5.60
  -4  -2  -6   19.40    5.70
  -4  -2  -6   19.50    6.20
   4  -2   6   18.50    4.80
  -4  -2  -6   31.50    6.30
  -4  -2  -6   18.80    6.20
  -4   2  -6   33.40    5.90
  -4   2  -6   29.30    6.00
   4   2   6   26.40    5.10
   4   2   6   16.60    5.10
  -5  -2  -6    3.20    5.50
  -5  -2  -6   -0.90    1.50
  -5  -2  -6   -7.10    3.60
  -5   2  -6    1.00    2.00
  -5   2  -6    0.00    2.10
  -5  -3   6   -3.50    1.80
  -5  -3   6    1.60    2.40
  -5   3   6    2.60    1.80
   5   3  -6    0.20    2.00
  -5   3   6    1.40    1.30
   4  -3  -6   -1.50    2.30
  -4  -3   6    5.10    3.20
  -4  -3   6    1.90    2.70
  -4  -3   6    5.10    4.10
  -4   3   6    2.90    2.40
  -4   3   6    0.80    4.10
  -4   3   6    4.10    3.10
   4   3  -6   -3.30    2.20
  -3  -3   6  156.58   11.30
  -3  -3   6  163.08   11.70
  -3  -3   6  170.08   13.40
   3  -3  -6  165.18   10.90
   3  -3  -6  160.38   12.30
  -3  -3   6  166.58   12.60
  -3   3   6  165.58   11.80
  -3   3   6  162.98   12.10
   3   3  -6  165.88   11.90
  -3   3   6  163.38   12.40
  -3   3   6  161.58   10.00
  -3   3   6  171.98   11.60
   2  -3  -6    9.40    2.90
  -2  -3   6    9.00    3.00
  -2  -3   6   12.30    2.80
  -2   3   6    5.80    1.90
  -2   3   6    6.60    2.20
  -2   3   6    6.10    2.40
   2   3  -6    7.00    2.30
  -1  -3   6 1887.11   49.70
  -1  -3   6 1879.31   47.20
  -1   3   6 1847.02   48.60
  -1   3   6 1853.81   50.19
   1   3  -6 1803.12   48.30
   0  -3   6  185.38    8.40
   0  -3  -6  179.78    8.40
   0  -3   6  183.38    6.20
   0   3  -6  175.28    5.20
   0   3  -6  179.38    7.60
   0   3   6  178.88    7.80
  -1  -3  -6 2024.50   54.19
  -1  -3  -6 2049.40   56.89
  -1   3  -6 2032.60   54.39
   1   3   6 1879.01   53.79
  -2  -3  -6    2.50    2.00
   2  -3   6    0.60    1.00
  -2  -3  -6    0.60    1.70
  -2  -3  -6    1.40    2.00
  -2   3  -6    1.90    2.20
  -2   3  -6    4.10    2.10
  -3  -3  -6  143.29   14.50
  -3  -3  -6  160.48   12.40
  -3  -3  -6  155.38   13.80
  -3  -3  -6  142.59   12.40
   3  -3   6  142.39   12.90
  -3   3  -6  156.38   13.60
  -3   3  -6  173.18   12.10
  -3   3  -6  159.58   11.70
  -4  -3  -6   15.00    5.80
   4  -3   6   21.00    5.80
  -4  -3  -6   25.30    6.30
  -4  -3  -6   22.90    5.90
  -4  -3  -6   16.00    4.80
  -4   3  -6   26.70    5.50
   4   3   6   19.10    4.90
  -4   3  -6   15.20    4.80
   4   3   6   16.50    4.70
  -5  -3  -6    0.00    3.90
   5  -3   6    6.00    4.30
  -5  -3  -6    6.70    2.70
  -5   3  -6   -0.40    2.20
  -5   3  -6    0.80    1.40
   5   3   6    2.80    3.50
  -5  -4   6   -1.60    1.20
   5  -4  -6    0.20    2.00
   5   4  -6    0.10    1.70
  -5   4   6   -1.10    1.40
  -5   4   6   -0.90    1.90
  -4  -4   6   16.80    5.30
  -4  -4   6   15.70    4.10
   4  -4  -6   13.50    3.90
  -4   4   6   14.80    4.30
   4   4  -6   11.10    4.10
  -4   4   6   18.90    4.80
   3  -4  -6    5.20    2.50
  -3  -4   6    4.50    2.90
   3  -4  -6   13.40    3.80
  -3  -4   6    6.70    3.00
  -3  -4   6    4.50    2.90
  -3  -4   6    2.30    2.80
  -3   4   6    5.60    3.00
  -3   4   6    2.20    2.50
  -3   4   6    5.60    2.60
  -3   4   6    7.50    3.30
  -3   4   6    5.90    2.70
   3   4  -6    6.50    3.00
   2  -4  -6   20.90    3.90
   2  -4  -6   23.30    4.90
  -2  -4   6   13.70    3.60
  -2  -4   6   14.10    5.10
  -2  -4   6   21.90    3.20
   2   4  -6   27.00    4.60
  -2   4   6   14.70    3.30
  -2   4   6    8.40    5.90
  -2   4   6   23.70    4.30
  -2   4   6   21.70    4.00
   1  -4  -6 1103.39   31.70
   1  -4  -6 1122.99   33.70
  -1  -4   6 1049.70   28.20
  -1  -4   6 1059.19   28.80
  -1  -4   6 1091.69   32.10
   1   4  -6 1072.39   30.90
  -1   4   6 1051.29   30.80
  -1   4   6 1106.39   34.30
   0  -4  -6  314.47   12.90
   0  -4  -6  318.27   14.00
   0   4   6  310.87   11.50
   0   4  -6  310.57   12.20
  -1  -4  -6  494.85   19.40
  -1  -4  -6  498.95   21.30
  -1  -4  -6  466.35   18.90
  -1   4  -6  512.65   19.60
   2  -4   6   79.29    8.80
  -2  -4  -6   81.59    7.80
  -2  -4  -6   80.49    8.60
  -2  -4  -6   77.89    8.10
  -2  -4  -6   75.99    8.80
  -2   4  -6   70.69    7.80
  -2   4  -6   77.99    7.30
  -3  -4  -6   47.70    7.50
  -3  -4  -6   40.00    7.70
  -3  -4  -6   36.60    6.80
  -3  -4  -6   31.20    6.90
   3  -4   6   36.40    7.20
  -3   4  -6   39.90    6.70
  -3   4  -6   43.50    7.20
  -3   4  -6   39.50    6.80
  -4  -4  -6    8.00    4.70
  -4  -4  -6    6.80    3.50
  -4  -4  -6   10.10    4.60
  -4  -4  -6    5.00    3.70
   4  -4   6    9.10    3.80
  -4   4  -6    2.50    2.90
   4   4   6    5.40    3.00
  -4   4  -6    6.60    3.20
  -5  -4  -6    1.80    1.70
  -5  -4  -6   13.30    4.70
   5   4   6    5.30    3.60
  -5   4  -6   -0.90    2.50
  -5  -5   6   -1.20    1.40
   5  -5  -6    0.40    1.40
   5   5  -6    1.40    1.90
  -4  -5   6    0.70    2.50
   4  -5  -6    6.80    3.30
  -4  -5   6    8.60    3.50
  -4   5   6    2.60    2.30
  -4   5   6    1.50    2.50
   4   5  -6    6.60    4.10
  -3  -5   6  139.79   12.50
  -3  -5   6  146.19   12.90
  -3  -5   6  136.49   11.00
  -3  -5   6  134.49   10.50
   3  -5  -6  149.39   11.90
  -3   5   6  132.39    9.50
  -3   5   6  121.29   11.50
   3   5  -6  153.88   12.90
  -3   5   6  162.98   13.70
  -3   5   6  139.69   11.70
  -3   5   6  145.49   11.30
   2  -5  -6   48.30    5.80
  -2  -5   6   60.09    5.50
  -2  -5   6   50.89    7.30
  -2  -5   6   55.49    6.90
   2  -5  -6   52.09    6.50
   2  -5  -6   44.90    6.80
  -2   5   6   52.89    6.70
   2   5  -6   54.79    6.90
  -2   5   6   53.79    7.00
  -2   5   6   59.89    6.00
  -2   5   6   51.59    6.00
  -2   5   6   52.19    7.10
   1  -5  -6  216.38   12.20
   1  -5  -6  218.78   10.70
  -1  -5   6  216.98   10.70
  -1   5   6  219.08    9.50
  -1   5   6  223.28   12.80
   1   5  -6  205.68    9.80
   1   5  -6  212.08   11.80
  -1   5   6  218.58   10.70
   0  -5  -6    0.80    1.80
   0  -5  -6    0.20    1.20
   0   5  -6    1.30    1.30
   0   5  -6    1.20    1.60
   0   5   6   -1.10    0.90
   0   5   6   -2.20    1.70
  -1  -5  -6  289.67   14.80
  -1  -5  -6  267.87   15.60
  -1  -5  -6  300.37   15.00
   1   5   6  268.47   12.40
  -1   5  -6  296.37   15.00
  -1   5  -6  306.17   14.20
   2  -5   6   73.09    9.40
  -2  -5  -6   77.09    9.00
  -2  -5  -6   60.39    9.60
  -2  -5  -6   68.89    8.40
  -2   5  -6   86.89    7.70
  -2   5  -6   77.29    8.60
  -2   5  -6   71.69    7.80
  -3  -5  -6   72.09   10.70
  -3  -5  -6   47.10    9.10
   3  -5   6   55.79    9.00
  -3  -5  -6   72.69    9.10
  -3  -5  -6   55.09    7.70
  -3   5  -6   54.99    7.60
  -3   5  -6   60.09    8.10
  -4  -5  -6   -0.20    3.30
  -4  -5  -6    4.80    4.00
  -4  -5  -6    4.10    2.90
   4  -5   6   -0.50    1.80
   4   5   6    5.30    3.10
  -4   5  -6    1.40    2.30
   5  -5   6    2.40    1.60
  -5  -5  -6    1.30    1.70
  -5  -5  -6   -5.70    2.80
   5   5   6   -1.10    2.40
  -5   5  -6   -1.20    2.70
  -5   5  -6    2.70    1.60
  -4  -6   6    6.20    2.90
   4  -6  -6    5.80    2.30
   4  -6  -6    8.60    3.10
   4   6  -6    5.20    3.80
  -4   6   6    4.10    2.40
   3  -6  -6   14.70    4.30
   3  -6  -6   30.70    5.90
  -3  -6   6   17.00    5.60
  -3  -6   6   37.10    7.30
  -3  -6   6   28.90    6.40
  -3   6   6   21.10    5.00
  -3   6   6   29.00    6.50
   3   6  -6   39.80    7.10
   2  -6  -6   13.80    4.50
  -2  -6   6    1.10    2.40
   2  -6  -6    6.30    3.10
   2  -6  -6    1.90    3.40
  -2  -6   6   10.80    3.90
  -2   6   6    0.90    2.50
   2   6  -6    6.50    3.10
  -2   6   6    9.40    3.10
  -2   6   6    5.90    2.90
  -1  -6   6  108.59    9.10
   1  -6  -6  109.19    8.90
   1  -6  -6   99.39    9.30
   1  -6  -6  104.09   10.10
   1  -6  -6   99.89    7.90
  -1   6   6   99.69    7.80
   1   6  -6   97.99    8.40
   1   6  -6  117.89    9.70
  -1   6   6   98.29    8.70
  -1   6   6  103.09    9.30
   0  -6  -6  123.39   10.40
   0  -6  -6  140.69   13.40
   0  -6  -6  136.19    9.40
   0  -6  -6  135.29   10.10
   0  -6  -6  114.79    8.80
   0  -6   6  122.49    9.30
   0   6   6  122.59    9.60
   0   6  -6  122.89    8.50
   0   6   6  124.99    8.40
   0   6  -6  117.39    8.50
  -1  -6  -6  154.18   10.90
  -1  -6  -6  152.78   11.10
  -1  -6  -6  149.09   11.70
   1  -6   6  141.09    9.90
  -1  -6  -6  134.19   11.90
  -1  -6  -6  137.09   11.70
   1  -6   6  151.48   12.50
   1   6   6  147.99    9.30
  -1   6  -6  143.99   11.30
   1   6   6  151.08   11.20
  -1   6  -6  150.18   10.20
  -1   6  -6  151.28   11.00
  -2  -6  -6  154.28   11.80
   2  -6   6  153.48   13.90
  -2  -6  -6  143.69   14.20
  -2  -6  -6  163.08   13.50
   2  -6   6  163.28   11.50
  -2  -6  -6  157.88   13.90
  -2   6  -6  152.68   11.60
  -2   6  -6  151.78   11.70
  -2   6  -6  153.38   13.30
  -3  -6  -6   -2.10    3.40
   3  -6   6    2.00    3.40
  -3  -6  -6    0.90    2.50
  -3  -6  -6    7.80    3.90
  -3  -6  -6   -3.50    2.60
   3  -6   6    1.90    2.50
  -3   6  -6    3.40    3.00
  -3   6  -6    2.40    2.60
   4  -6   6    1.60    2.10
   4  -6   6    4.80    3.10
  -4  -6  -6    1.50    2.20
  -4  -6  -6   -0.70    3.50
  -4   6  -6   -1.90    1.80
   4   6   6   -0.80    2.60
  -4   6  -6    2.80    2.30
   4  -7  -6   -1.10    2.00
  -4  -7   6    0.20    1.70
   4  -7  -6    0.70    2.30
  -4   7   6    1.00    1.60
  -3  -7   6  101.59   10.60
   3  -7  -6   83.99    9.00
   3  -7  -6  101.29   10.30
   3   7  -6   93.39    9.80
  -3   7   6  102.79    9.50
   2  -7  -6    6.50    2.40
  -2  -7   6   -0.90    2.30
  -2   7   6    1.80    2.40
   2   7  -6   -1.40    1.80
  -2   7   6   -0.40    2.70
  -1  -7   6   91.49    9.20
   1  -7  -6   98.59    8.60
   1  -7  -6   91.79   10.00
   1  -7  -6  105.79   10.20
   1   7  -6   94.99    8.60
  -1   7   6  103.89   10.30
  -1   7   6   89.39    7.80
  -1   7   6  100.69    9.20
   1   7  -6   99.19    9.50
   0  -7  -6   27.10    5.50
   0  -7   6   29.00    5.10
   0  -7  -6   29.80    6.00
   0  -7  -6   20.50    5.00
   0  -7  -6   26.90    5.40
   0  -7  -6   23.20    5.20
   0   7   6   34.00    6.10
   0   7   6   40.50    5.20
   0   7  -6   26.10    5.30
   0   7  -6   31.60    6.20
   0   7  -6   27.60    4.90
  -1  -7  -6   41.00    7.60
  -1  -7  -6   41.70    6.20
  -1  -7  -6   36.00    6.60
  -1  -7  -6   45.20    6.70
   1  -7   6   35.50    5.60
   1  -7   6   34.70    7.60
  -1   7  -6   38.10    5.80
   1   7   6   40.10    6.30
  -1   7  -6   38.90    6.80
  -1   7  -6   43.40    6.10
   1   7   6   25.00    4.80
   2  -7   6  121.29   12.50
   2  -7   6  122.59   10.00
  -2  -7  -6  112.99   12.90
  -2  -7  -6  117.59   10.30
  -2  -7  -6  119.59   11.60
  -2  -7  -6  124.09   12.50
  -2   7  -6  124.29   10.50
  -2   7  -6  109.29   10.10
  -3  -7  -6    4.10    3.80
  -3  -7  -6   -0.70    1.80
  -3  -7  -6   -2.10    2.90
   3  -7   6   -0.70    2.60
   3  -7   6    2.30    2.10
  -3   7  -6    2.40    2.30
  -3   7  -6    3.00    2.50
  -4  -7  -6    5.40    2.70
  -4  -7  -6    1.60    1.90
   4  -7   6    2.40    1.70
   4   7   6   -1.90    1.50
  -4   7  -6    0.40    1.90
  -4   7  -6    5.60    2.50
   4   7   6   -2.30    2.50
   4  -8  -6   -0.90    1.20
  -4  -8   6    1.50    1.30
  -4   8   6    1.20    1.20
   3  -8  -6   16.20    3.90
   3  -8  -6   23.10    5.30
  -3  -8   6   11.30    4.00
   3   8  -6   24.90    5.50
  -3   8   6   18.70    4.10
   2  -8  -6   -1.70    2.20
  -2  -8   6    1.20    2.10
  -2   8   6   -1.90    3.20
  -2   8   6    3.10    2.30
   2   8  -6    1.90    2.10
   1  -8  -6   17.70    5.00
   1  -8  -6   18.50    5.30
  -1  -8   6   21.90    5.10
   1   8  -6   34.10    5.60
   1   8  -6   21.70    4.90
  -1   8   6   30.70    5.50
  -1   8   6   27.30    5.60
   0  -8  -6   10.80    4.20
   0  -8  -6    9.30    3.50
   0  -8   6   17.80    4.10
   0   8  -6   12.00    3.50
   0   8   6    6.80    3.70
   0   8  -6   11.60    3.80
   0   8   6    4.90    2.70
  -1  -8  -6  190.58   14.60
  -1  -8  -6  196.78   15.20
   1  -8   6  197.78   15.90
   1  -8   6  218.88   13.50
  -1  -8  -6  205.48   14.70
  -1   8  -6  178.28   12.60
   1   8   6  190.78   13.70
  -1   8  -6  192.68   13.10
  -2  -8  -6   32.00    6.20
   2  -8   6   40.00    8.10
  -2  -8  -6   21.20    6.10
   2  -8   6   40.10    5.60
  -2  -8  -6   25.30    6.40
  -2   8  -6   36.50    6.10
  -2   8  -6   37.00    5.60
  -3  -8  -6    0.90    2.90
  -3  -8  -6    5.00    3.00
  -3  -8  -6    7.20    5.80
   3  -8   6    5.00    2.20
   3  -8   6    9.50    4.00
  -3   8  -6   10.30    3.20
  -3   8  -6    7.30    3.00
  -4  -8  -6    4.10    1.90
  -4   8  -6    2.00    1.80
  -4   8  -6    0.80    2.00
   4   8   6    2.60    1.90
   3  -9  -6    5.30    2.50
   3  -9  -6    9.30    3.00
  -3  -9   6    5.40    2.40
   3   9  -6    6.50    3.60
  -3   9   6    6.60    2.20
  -2  -9   6    1.80    2.40
   2  -9  -6    4.50    2.70
   2  -9  -6    2.80    2.80
   2   9  -6    0.60    2.00
  -2   9   6    2.00    1.80
   1  -9  -6   76.69    8.70
   1  -9  -6   71.89    8.20
  -1  -9   6   56.59    7.90
   1   9  -6   66.29    7.60
  -1   9   6   62.69    8.00
   0  -9  -6    0.20    2.10
   0  -9   6    4.30    2.20
   0  -9  -6    1.20    2.50
   0   9  -6    4.00    2.80
   0   9   6    0.20    1.90
   0   9  -6    4.40    2.60
   1  -9   6    7.60    2.80
  -1  -9  -6    6.00    2.40
  -1  -9  -6    3.30    2.70
  -1   9  -6    0.80    2.40
  -1   9  -6    4.60    3.00
  -2  -9  -6    0.30    2.20
   2  -9   6   -3.00    1.50
  -2  -9  -6   -1.90    2.60
  -2   9  -6   -2.40    1.70
  -2   9  -6   -1.30    1.80
   3  -9   6   13.20    2.40
  -3  -9  -6    9.10    3.20
  -3  -9  -6   14.10    3.50
  -3   9  -6   17.30    3.70
  -3   9  -6   21.60    3.90
  -2 -10   6   -1.20    1.60
   2 -10  -6    1.20    2.90
   2 -10  -6    1.80    1.90
   2  10  -6   -2.40    2.20
  -2  10   6    0.90    1.50
   1 -10  -6    4.90    2.50
   1 -10  -6    7.60    3.60
  -1 -10   6    9.60    3.10
  -1  10   6    7.50    2.90
   1  10  -6    7.60    3.00
   0 -10   6    1.90    2.10
   0 -10  -6    7.50    3.40
   0 -10  -6    8.00    3.70
   0  10  -6    7.80    2.70
   0  10   6    6.40    2.40
   0  10  -6    4.20    2.50
  -1 -10  -6   -0.10    2.10
   1 -10   6    1.60    1.70
  -1 -10  -6    1.20    2.60
  -1  10  -6   -0.10    1.80
  -1  10  -6    2.70    1.80
  -2 -10  -6    4.60    3.10
  -2 -10  -6    6.30    2.50
   2 -10   6    1.70    1.60
  -2  10  -6    2.00    2.10
  -2  10  -6    6.30    2.60
  -1 -11   6    1.50    1.40
   1 -11  -6    0.70    1.60
   1  11  -6    0.30    1.90
  -1  11   6    2.40    1.50
   0 -11   6   14.80    3.30
   0 -11  -6    9.20    3.30
   0 -11  -6   10.40    3.00
   0  11  -6    5.40    2.70
  -1 -11  -6    0.90    2.30
   1 -11   6    0.20    1.60
  -1 -11  -6    3.20    2.00
  -1  11  -6   -0.80    1.90
  -1  11  -6   -1.70    1.40
  -5   0   7   -1.30    2.80
  -5   0   7   -0.30    2.30
   5   0  -7    2.50    2.10
   4   0  -7   -0.70    2.50
   4   0  -7    2.30    2.20
  -4   0   7    5.40    3.20
  -4   0   7    0.10    2.20
  -4   0   7    2.10    1.80
  -3   0   7  221.38   13.40
  -3   0   7  232.58   10.70
  -3   0   7  250.07   14.50
  -3   0   7  231.58   14.10
   3   0  -7  236.08   13.50
   3   0  -7  222.08   14.10
  -2   0   7   -0.30    0.80
  -2   0   7    0.90    1.20
   2   0  -7    1.80    1.70
  -1   0   7   93.89    5.70
   1   0  -7   99.49    4.50
  -1   0   7   98.19    4.10
   0   0   7   -1.50    0.70
   0   0  -7   -0.10    0.40
  -1   0  -7  531.85   16.30
   1   0   7  446.96   16.50
   1   0   7  524.35   16.10
  -2   0  -7    1.40    1.50
  -2   0  -7    0.50    1.30
  -2   0  -7    0.20    1.20
   3   0   7  268.47   16.60
   3   0   7  253.87   15.60
  -3   0  -7  277.07   17.00
  -3   0  -7  271.57   15.50
  -3   0  -7  281.37   15.60
  -3   0  -7  268.57   16.10
  -3   0  -7  282.57   16.60
  -4   0  -7    0.60    2.30
   4   0   7    0.70    3.50
  -4   0  -7   -4.30    3.00
   4   0   7    0.20    3.60
  -4   0  -7   -2.70    2.00
  -5   0  -7   -1.50    1.40
  -5   0  -7   -1.70    2.60
  -5  -1   7   10.20    2.90
   5  -1  -7   11.30    3.70
  -5  -1   7   12.00    3.10
  -5   1   7   13.60    3.50
  -5   1   7   13.10    3.30
   5   1  -7    9.10    3.30
   4  -1  -7    2.50    3.40
   4  -1  -7    4.40    2.80
  -4  -1   7    9.20    3.10
  -4  -1   7    6.70    3.10
  -4  -1   7    3.10    3.20
  -4   1   7    2.20    3.30
  -4   1   7    0.40    2.50
  -4   1   7    5.50    3.30
   4   1  -7    3.70    3.50
   4   1  -7    4.10    3.20
   3  -1  -7    6.20    2.90
  -3  -1   7    6.10    2.80
  -3  -1   7   -0.40    1.60
  -3  -1   7    3.10    2.10
   3  -1  -7    2.60    2.10
  -3   1   7    1.30    2.10
  -3   1   7   -0.60    2.00
  -3   1   7    1.90    2.80
  -3   1   7    2.80    2.40
   3   1  -7    1.00    2.10
   2  -1  -7    0.50    1.50
  -2  -1   7    2.30    1.40
  -2   1   7   -1.20    1.00
  -1  -1   7 2476.85   59.99
   1  -1  -7 2304.17   59.99
  -1   1   7 2415.16   58.69
  -1   1   7 2221.08   60.09
   1   1  -7 2421.26   60.29
   0  -1  -7   54.29    3.90
   0  -1   7   54.69    4.00
   0  -1  -7   56.59    4.00
   0   1   7   54.29    4.20
  -1  -1  -7 2013.20   53.49
   1  -1   7 2070.89   51.09
  -1   1  -7 2061.19   50.99
   1   1   7 2060.99   53.09
   1   1   7 2055.69   53.69
  -1   1  -7 2092.49   52.69
  -1   1  -7 2000.00   54.19
  -2  -1  -7    8.60    3.00
  -2  -1  -7    7.60    2.60
   2  -1   7    5.10    1.80
  -2  -1  -7   10.50    2.80
  -2   1  -7    9.20    2.90
  -2   1  -7    5.60    1.80
  -2   1  -7   10.80    2.80
  -3  -1  -7  169.68   13.20
   3  -1   7  150.88   11.60
   3  -1   7  158.78   12.80
  -3  -1  -7  164.98   13.00
  -3  -1  -7  160.58   12.00
  -3  -1  -7  170.38   12.00
  -3  -1  -7  167.58   12.70
  -3   1  -7  170.18   11.90
  -3   1  -7  157.98   11.80
  -3   1  -7  162.28   13.00
  -3   1  -7  174.18   12.00
   3   1   7  161.08   12.40
   3   1   7  155.58   12.00
  -4  -1  -7   40.40    7.10
  -4  -1  -7   44.00    7.50
  -4  -1  -7   40.60    7.50
   4  -1   7   25.80    5.90
  -4   1  -7   40.10    7.40
   4   1   7   48.80    7.60
  -4   1  -7   33.40    6.70
   4   1   7   27.10    6.90
  -4   1  -7   36.80    6.70
  -5  -1  -7   11.60    3.90
  -5  -1  -7   10.00    3.10
  -5   1  -7    6.80    3.30
  -5   1  -7   12.00    3.60
  -5  -2   7    6.70    2.80
   5  -2  -7    1.60    1.80
  -5  -2   7    1.40    1.90
  -5   2   7    2.90    2.10
  -5   2   7    1.50    1.90
   5   2  -7    1.80    2.20
  -4  -2   7   35.60    6.10
  -4  -2   7   35.70    6.50
   4  -2  -7   38.60    6.40
   4  -2  -7   27.90    6.50
  -4  -2   7   40.30    7.30
  -4   2   7   22.20    5.40
  -4   2   7   36.30    6.40
  -4   2   7   28.10    5.70
   4   2  -7   27.60    6.20
   4   2  -7   39.80    6.30
   3  -2  -7   62.49    7.20
   3  -2  -7   76.09    7.40
  -3  -2   7   69.09    7.30
  -3  -2   7   47.70    6.60
  -3  -2   7   69.09    8.50
  -3  -2   7   64.19    7.80
  -3   2   7   73.19    7.60
   3   2  -7   67.99    7.30
  -3   2   7   78.29    7.70
  -3   2   7   56.29    7.00
  -3   2   7   56.49    7.50
  -2  -2   7    4.00    1.80
  -2  -2   7    5.40    1.80
   2  -2  -7    6.60    2.30
   2   2  -7    6.90    2.40
  -2   2   7    6.20    2.10
  -2   2   7    8.80    2.30
  -1  -2   7  770.22   22.70
   1   2  -7  758.62   23.10
  -1   2   7  752.32   23.30
  -1   2   7  791.12   23.50
   0  -2   7 1506.05   38.50
   0  -2  -7 1504.75   40.10
   0   2   7 1539.45   40.00
   0   2  -7 1472.45   38.30
  -1  -2  -7  188.08    9.60
  -1   2  -7  176.38    7.20
  -1   2  -7  191.78    6.50
   1   2   7  186.58    9.20
  -1   2  -7  198.88    9.80
   2  -2   7   94.79    5.90
  -2  -2  -7   96.69    7.80
  -2  -2  -7   95.39    8.90
  -2  -2  -7   93.29    8.00
  -2   2  -7  101.29    6.50
  -2   2  -7  103.49    5.90
  -2   2  -7  101.89    7.60
  -2   2  -7   98.49    8.40
  -3  -2  -7  231.88   15.40
  -3  -2  -7  240.58   16.30
   3  -2   7  231.78   15.70
  -3  -2  -7  215.48   16.10
  -3  -2  -7  223.98   14.70
   3  -2   7  220.48   14.50
  -3   2  -7  219.18   13.00
   3   2   7  232.58   13.50
  -3   2  -7  228.18   14.10
  -3   2  -7  238.28   14.60
  -3   2  -7  245.58   16.40
   3   2   7  227.18   15.10
  -4  -2  -7    2.80    3.50
  -4  -2  -7    9.70    6.10
   4  -2   7   -1.20    2.80
  -4  -2  -7    3.10    3.20
  -4  -2  -7    4.10    3.00
   4   2   7    2.20    7.70
   4   2   7    7.90    3.00
  -4   2  -7    0.00    2.40
  -4   2  -7    1.70    2.30
  -5  -2  -7    2.60    3.40
  -5  -2  -7   -0.70    1.50
  -5   2  -7   -0.40    2.30
  -5   2  -7   -1.30    1.90
   5  -3  -7    6.00    2.10
  -5  -3   7    2.40    2.20
  -5   3   7    1.30    1.70
   5   3  -7    3.40    2.50
  -5   3   7    1.80    1.60
  -4  -3   7   25.30    5.80
  -4  -3   7   18.30    5.80
   4  -3  -7   20.60    5.50
  -4  -3   7   13.90    4.20
   4   3  -7   24.10    5.80
  -4   3   7   34.80    7.90
  -4   3   7   21.70    5.00
  -4   3   7   28.00    6.30
  -3  -3   7   -0.20    1.70
  -3  -3   7    0.50    2.10
  -3  -3   7   -0.70    2.40
   3  -3  -7    0.70    2.10
  -3   3   7    1.40    2.20
  -3   3   7    5.00    2.90
  -3   3   7    2.90    2.10
  -3   3   7    4.50    3.60
  -3   3   7    4.00    2.90
   3   3  -7   -1.90    1.90
   2  -3  -7 1236.68   38.20
  -2  -3   7 1221.48   39.70
  -2  -3   7 1256.17   36.90
  -2   3   7 1235.28   38.10
  -2   3   7 1241.28   37.40
   2   3  -7 1228.48   37.80
  -1  -3   7  605.34   18.70
  -1   3   7  607.44   20.00
  -1   3   7  609.64   21.00
   1   3  -7  596.44   19.40
   0  -3   7  355.16   11.30
   0  -3  -7  372.76   13.90
   0   3  -7  376.46   12.70
   0   3   7  388.76   13.50
   0   3  -7  375.76   10.10
   0   3  -7  368.96   10.10
  -1  -3  -7    6.70    2.00
  -1   3  -7    8.40    2.50
  -2  -3  -7  423.36   21.50
  -2  -3  -7  440.06   19.60
  -2  -3  -7  444.86   20.20
  -2   3  -7  459.25   20.50
  -2   3  -7  444.76   18.20
  -3  -3  -7   17.80    5.00
  -3  -3  -7   17.30    4.30
   3  -3   7    9.60    3.90
  -3  -3  -7    3.20    6.40
  -3  -3  -7   28.70    7.20
  -3   3  -7   22.00    5.30
  -3   3  -7   17.70    4.10
  -3   3  -7   30.60    6.40
  -4  -3  -7    6.90    5.80
  -4  -3  -7    3.30    2.90
  -4  -3  -7    2.90    5.40
   4  -3   7    2.10    3.00
  -4  -3  -7   10.50    4.10
  -4   3  -7    7.70    3.20
   4   3   7    5.20    3.30
  -4   3  -7    3.30    3.00
   4   3   7    3.50    4.40
   5  -3   7    0.50    3.90
  -5  -3  -7    3.90    1.80
   5   3   7   -1.00    3.40
  -5   3  -7    0.90    1.30
  -5   3  -7   -0.70    2.60
   5  -4  -7   -0.90    1.70
   5   4  -7    2.80    2.30
  -5   4   7    1.50    1.50
  -5   4   7    0.60    1.40
  -4  -4   7    6.90    3.30
   4  -4  -7   12.20    3.90
  -4  -4   7   12.00    3.60
   4   4  -7   13.00    4.80
  -4   4   7    6.60    3.40
  -4   4   7    9.80    3.10
  -3  -4   7    5.00    3.30
  -3  -4   7    2.10    2.40
  -3  -4   7    4.00    2.80
   3  -4  -7    0.40    2.60
   3  -4  -7   -1.00    2.10
  -3  -4   7    0.80    2.10
  -3   4   7    0.50    3.20
  -3   4   7    6.20    3.30
  -3   4   7    3.00    3.10
   3   4  -7   -1.20    2.20
  -3   4   7    3.60    3.10
   2  -4  -7    3.40    2.60
   2  -4  -7    1.60    1.90
  -2  -4   7    4.70    2.30
  -2  -4   7   -0.20    2.20
  -2  -4   7   -0.70    1.20
  -2   4   7   -1.10    1.70
  -2   4   7    3.00    2.20
   2   4  -7    0.60    2.10
  -2   4   7   -1.50    1.30
  -2   4   7   -1.10    2.00
  -2   4   7   -3.70    2.40
   1  -4  -7  149.88    9.30
   1  -4  -7  145.79    8.30
  -1  -4   7  151.68    6.90
  -1   4   7  147.89    9.40
  -1   4   7  145.19    8.00
   1   4  -7  142.49    7.60
   0  -4  -7  692.53   22.90
   0  -4  -7  678.03   23.80
   0   4  -7  687.83   21.50
   0   4   7  693.23   21.20
  -1  -4  -7    5.50    2.80
  -1  -4  -7    2.10    1.60
  -1  -4  -7    3.60    2.20
  -1   4  -7    7.40    2.40
  -2  -4  -7   10.80    3.60
  -2  -4  -7    8.00    3.00
   2  -4   7    9.20    3.90
  -2  -4  -7    4.90    3.20
  -2  -4  -7    5.90    3.20
  -2   4  -7    4.80    2.50
  -2   4  -7    6.60    2.60
  -3  -4  -7   43.40    7.50
  -3  -4  -7   52.49    7.40
  -3  -4  -7   55.29   11.00
   3  -4   7   55.99    8.50
  -3  -4  -7   36.40    7.50
  -3   4  -7   44.60    8.10
  -3   4  -7   37.00    6.90
  -3   4  -7   47.70    7.00
  -4  -4  -7    6.80    5.30
  -4  -4  -7   12.10    6.30
   4  -4   7   13.40    4.70
  -4  -4  -7   22.90    6.00
  -4  -4  -7   24.90    5.80
   4   4   7   25.10    5.70
  -4   4  -7   29.10    5.70
  -4   4  -7   18.30    4.60
   4   4   7   14.60    4.40
   5  -4   7    1.90    1.90
  -5  -4  -7    3.60    2.10
   5   4   7    7.00    2.80
  -5   4  -7   -1.00    2.10
  -5   4  -7   -0.10    1.50
   5  -5  -7    5.30    2.80
  -5  -5   7    0.80    1.20
   5  -5  -7    4.10    2.00
  -5   5   7    2.50    1.40
   5   5  -7    3.50    2.10
  -4  -5   7    7.70    3.10
  -4  -5   7   -1.00    3.80
   4  -5  -7    8.50    3.50
  -4   5   7    8.20    3.40
  -4   5   7   15.10    4.30
   4   5  -7   13.10    4.20
   3  -5  -7   -2.00    2.10
   3  -5  -7   -0.10    3.70
  -3  -5   7    0.90    2.60
  -3  -5   7   -3.00    3.70
  -3  -5   7   -1.40    3.00
  -3   5   7    3.80    2.40
  -3   5   7    5.10    4.20
   3   5  -7   -0.30    2.60
  -3   5   7    1.80    3.80
  -3   5   7    0.10    2.20
  -2  -5   7  651.53   22.10
   2  -5  -7  659.73   25.10
   2  -5  -7  657.63   27.40
  -2  -5   7  663.13   26.50
   2  -5  -7  620.44   24.10
  -2  -5   7  664.03   27.10
  -2   5   7  637.34   22.80
   2   5  -7  649.74   26.80
  -2   5   7  645.84   27.60
  -2   5   7  673.63   27.50
  -2   5   7  635.84   26.00
  -2   5   7  665.13   24.20
   1  -5  -7  355.46   16.20
   1  -5  -7  337.57   14.60
  -1   5   7  336.17   14.20
   1   5  -7  354.36   15.70
  -1   5   7  328.97   13.10
  -1   5   7  333.17   16.60
   1   5  -7  329.07   13.20
   0  -5  -7  411.16   16.80
   0  -5  -7  390.26   17.40
   0   5   7  401.56   14.50
   0   5  -7  396.16   16.00
   0   5  -7  416.76   15.60
  -1  -5  -7   38.70    4.80
  -1  -5  -7   33.10    5.30
  -1  -5  -7   32.30    5.20
  -1   5  -7   26.30    4.60
  -1   5  -7   21.50    4.70
  -2  -5  -7  388.36   21.50
  -2  -5  -7  397.46   19.70
   2  -5   7  394.16   21.90
   2  -5   7  382.26   21.10
  -2  -5  -7  394.06   22.30
  -2  -5  -7  353.56   21.60
  -2   5  -7  405.56   20.60
  -2   5  -7  384.96   18.20
   2   5   7  361.96   21.50
  -2   5  -7  384.96   19.00
  -3  -5  -7   15.30    4.90
  -3  -5  -7   24.50    6.90
   3  -5   7   22.00    5.70
  -3  -5  -7   33.40    5.90
  -3  -5  -7   25.20    6.70
  -3   5  -7   16.10    4.60
  -3   5  -7   30.00    5.90
  -4  -5  -7    0.90    2.70
  -4  -5  -7    1.90    4.10
  -4  -5  -7   -0.10    4.10
  -4  -5  -7    2.20    3.40
   4   5   7    1.50    2.50
  -4   5  -7    1.50    2.10
  -4   5  -7   -0.30    2.00
  -5  -5  -7    4.00    2.00
   5   5   7   -0.70    2.30
  -5   5  -7    3.70    2.70
  -5   5  -7    4.50    2.10
   4  -6  -7    3.00    2.70
  -4  -6   7    2.20    2.50
   4  -6  -7    3.40    2.10
  -4   6   7    4.70    2.20
   4   6  -7   -1.00    2.90
  -3  -6   7   -1.40    1.80
   3  -6  -7    3.90    4.10
   3  -6  -7    2.60    2.60
  -3   6   7    2.90    2.70
   3   6  -7    3.10    3.20
   2  -6  -7   -2.40    1.90
   2  -6  -7   -3.40    2.20
  -2  -6   7   -1.00    2.30
   2  -6  -7   -3.90    2.50
  -2   6   7    7.10    3.00
   2   6  -7    2.90    2.30
  -1  -6   7   82.79    7.90
   1  -6  -7   70.49    9.00
   1  -6  -7   81.29    8.30
   1  -6  -7   90.89    8.00
   1  -6  -7   88.69    7.80
  -1   6   7   62.59    7.70
  -1   6   7   69.49    7.40
  -1   6   7   71.99    8.40
   1   6  -7   80.49    7.70
   1   6  -7   86.39    8.60
  -1   6   7   74.89    6.70
   0  -6  -7  367.36   17.50
   0  -6  -7  365.86   19.30
   0  -6  -7  374.26   17.10
   0  -6   7  379.96   17.30
   0  -6  -7  344.57   18.50
   0   6   7  372.36   17.90
   0   6  -7  351.66   16.10
   0   6   7  381.16   15.40
   0   6  -7  381.06   16.20
   1  -6   7  200.68   14.30
  -1  -6  -7  238.68   13.90
  -1  -6  -7  199.88   15.50
   1  -6   7  195.98   11.80
  -1  -6  -7  186.28   13.80
  -1  -6  -7  183.08   13.40
  -1  -6  -7  219.38   14.80
  -1   6  -7  213.08   12.30
  -1   6  -7  195.78   12.90
   1   6   7  204.58   13.10
  -1   6  -7  206.48   13.30
  -2  -6  -7   45.90    7.30
   2  -6   7   25.60    5.50
  -2  -6  -7   26.80    6.30
  -2  -6  -7   31.30    7.50
  -2  -6  -7   45.20    6.90
   2  -6   7   47.40    8.50
  -2   6  -7   54.09    7.30
  -2   6  -7   48.20    6.70
  -2   6  -7   29.30    6.90
  -3  -6  -7    1.40    2.40
  -3  -6  -7   -2.60    3.00
  -3  -6  -7   -1.10    3.90
  -3  -6  -7    2.90    2.90
   3  -6   7   -0.70    2.30
  -3   6  -7    2.80    2.60
  -3   6  -7    1.10    2.70
  -4  -6  -7    4.90    4.80
   4  -6   7   12.40    3.90
  -4  -6  -7    6.70    3.90
   4  -6   7   16.80    3.50
  -4  -6  -7   13.30    4.00
   4   6   7    7.40    3.10
   4   6   7    1.10    3.20
  -4   6  -7    9.10    3.00
  -4   6  -7    7.90    2.80
   4  -7  -7   -0.80    1.60
  -4  -7   7    0.10    1.70
   4  -7  -7   -1.70    2.00
   4   7  -7    0.70    4.40
  -4   7   7    0.00    1.30
   3  -7  -7    2.50    2.60
   3  -7  -7    3.40    2.60
  -3  -7   7    5.70    2.70
  -3   7   7    0.70    2.20
   3   7  -7    0.70    2.70
   2  -7  -7   96.09    9.90
  -2  -7   7   78.39    9.30
   2  -7  -7   86.69    9.70
  -2   7   7   82.79    8.10
  -2   7   7   86.79    8.70
   2   7  -7   78.39    8.80
   1  -7  -7   68.69    8.80
   1  -7  -7   66.09    7.30
  -1  -7   7   73.29    7.90
   1  -7  -7   69.59    8.50
   1   7  -7   60.19    7.60
  -1   7   7   71.09    9.30
  -1   7   7   65.59    7.40
  -1   7   7   72.49    6.90
   1   7  -7   68.89    7.50
   0  -7  -7    1.90    2.80
   0  -7   7   -0.70    2.10
   0  -7  -7    5.20    5.20
   0  -7  -7    5.10    2.90
   0  -7  -7    7.90    3.30
   0  -7  -7    0.50    2.20
   0  -7   7    0.00    5.30
   0   7   7    5.30    3.20
   0   7  -7    0.50    2.20
   0   7   7    3.90    2.70
   0   7  -7    1.70    3.60
   0   7  -7    4.10    3.10
  -1  -7  -7    8.20    4.30
   1  -7   7    2.90    3.30
  -1  -7  -7   10.50    3.50
   1  -7   7   14.80    3.60
  -1  -7  -7   11.90    4.00
  -1  -7  -7   11.60    4.40
  -1   7  -7    5.80    3.90
   1   7   7   10.20    3.70
  -1   7  -7    8.90    3.90
  -1   7  -7   17.30    4.10
   2  -7   7  299.87   16.10
   2  -7   7  310.37   20.70
  -2  -7  -7  291.37   16.50
  -2  -7  -7  297.37   20.20
  -2  -7  -7  316.57   19.50
  -2  -7  -7  268.77   19.10
  -2   7  -7  304.77   17.10
  -2   7  -7  291.97   16.80
  -3  -7  -7    0.90    4.00
  -3  -7  -7    0.60    3.60
  -3  -7  -7    0.50    3.40
  -3  -7  -7   -0.50    2.10
   3  -7   7    0.80    1.70
   3  -7   7    1.10    2.40
  -3   7  -7    4.20    2.60
  -3   7  -7    0.50    1.80
   4  -7   7    6.00    1.80
   4  -7   7    6.60    2.80
  -4  -7  -7   10.30    3.80
  -4  -7  -7    6.40    2.80
  -4   7  -7    5.80    3.10
  -4   7  -7    3.30    2.10
   4   7   7    3.50    2.10
   4  -8  -7   -1.10    1.20
  -4  -8   7    1.50    1.40
  -4   8   7    2.70    1.50
   3  -8  -7    4.10    2.50
  -3  -8   7   -1.50    1.40
   3  -8  -7    2.30    2.30
   3   8  -7    1.60    2.40
  -3   8   7    2.30    1.90
   2  -8  -7    2.00    1.70
   2  -8  -7    0.60    2.20
  -2  -8   7   -0.20    2.20
  -2   8   7   -1.60    1.70
   2   8  -7    1.30    2.10
   1  -8  -7   22.20    5.50
   1  -8  -7   16.70    5.10
  -1  -8   7   32.50    5.80
  -1   8   7   18.80    4.70
   1   8  -7   21.70    4.90
   1   8  -7   26.40    5.60
   0  -8   7  113.49   10.00
   0  -8  -7  129.09   10.40
   0  -8  -7  121.69   11.40
   0  -8  -7  111.59   11.50
   0   8   7  120.89   10.90
   0   8  -7  126.19   10.50
   0   8  -7  110.29    9.90
   1  -8   7   61.59    7.20
  -1  -8  -7   56.49    8.30
  -1  -8  -7   41.20    8.20
  -1  -8  -7   53.99    8.20
   1  -8   7   48.80    8.90
  -1  -8  -7   55.99    8.60
  -1   8  -7   48.60    6.60
  -1   8  -7   43.30    6.70
   1   8   7   42.30   10.80
   2  -8   7   15.90    4.50
  -2  -8  -7   18.10    5.00
   2  -8   7   27.30    4.90
  -2  -8  -7   19.60    5.20
  -2  -8  -7   14.80    6.30
  -2   8  -7   24.80    5.00
  -2   8  -7   17.70    4.40
   3  -8   7    0.70    1.40
   3  -8   7   -0.20    2.60
  -3  -8  -7    1.60    3.30
  -3  -8  -7   11.80    6.20
  -3   8  -7   -1.30    1.50
  -4  -8  -7   -0.30    1.50
  -4  -8  -7   -0.20    2.60
   4   8   7    0.60    1.40
  -4   8  -7    5.90    2.30
  -4   8  -7   -0.90    1.20
   3  -9  -7   -1.90    2.40
  -3  -9   7    1.40    1.60
   3  -9  -7    4.60    2.20
  -3   9   7   -0.20    1.40
  -3   9   7    0.30    3.20
   3   9  -7    2.00    2.70
  -2  -9   7   17.20    4.50
   2  -9  -7   25.20    5.00
   2  -9  -7   24.80    5.50
  -2   9   7   29.80    4.80
   2   9  -7   23.50    4.60
   1  -9  -7    4.30    2.70
  -1  -9   7    7.90    3.00
   1  -9  -7   11.00    3.50
  -1   9   7    4.00    2.20
   1   9  -7    9.40    3.20
   0  -9  -7   -2.30    2.00
   0  -9   7    3.80    2.40
   0  -9  -7    2.30    2.90
   0   9  -7    3.10    2.40
   0   9   7    0.90    2.00
   0   9  -7   -0.20    2.20
   1  -9   7   -0.70    1.60
  -1  -9  -7    2.60    2.40
  -1  -9  -7   -1.10    2.40
  -1   9  -7    1.40    2.40
  -1   9  -7    2.00    2.20
  -2  -9  -7   32.70    6.90
  -2  -9  -7   46.40    6.80
   2  -9   7   36.80    4.80
  -2   9  -7   47.40    5.80
  -2   9  -7   40.90    5.70
  -3  -9  -7    5.10    2.40
  -3  -9  -7   -2.00    1.40
  -3   9  -7    3.70    2.10
  -3   9  -7    1.00    1.90
   2 -10  -7    1.60    2.00
   2  10  -7   -0.60    2.20
  -2  10   7    3.20    1.60
   1 -10  -7    1.50    1.90
   1 -10  -7    1.80    2.20
  -1 -10   7    4.40    2.40
  -1  10   7    7.80    2.70
   1  10  -7    5.40    2.80
   0 -10  -7   -1.90    2.00
   0 -10   7   -0.40    1.80
   0  10   7    0.90    2.10
   0  10  -7   -0.10    1.90
  -1 -10  -7   20.30    4.40
   1 -10   7   20.70    3.80
  -1 -10  -7   22.30    5.20
  -1  10  -7   13.90    3.60
  -1  10  -7   15.10    4.00
   2 -10   7    0.40    1.50
  -2 -10  -7   -2.10    2.00
  -2 -10  -7    0.50    1.60
  -2  10  -7   -0.60    1.50
  -2  10  -7    2.30    2.20
  -1 -11   7    1.70    1.80
   1 -11  -7   -2.10    1.50
  -1  11   7   -1.80    1.20
   1  11  -7   -0.20    2.10
   0 -11   7   -0.10    1.70
   0 -11  -7    2.00    1.90
   0 -11  -7    0.50    2.50
   0  11   7    0.60    3.50
   0  11  -7    6.50    2.70
  -1 -11  -7    5.80    2.50
  -1 -11  -7    5.70    2.50
  -1  11  -7    0.70    2.20
  -1  11  -7    7.10    2.50
  -5   0   8   -2.50    2.80
   5   0  -8    3.20    1.90
  -5   0   8   -0.10    1.80
  -5   0   8   -0.50    1.50
  -4   0   8   59.89    7.30
  -4   0   8   65.19    9.30
   4   0  -8   58.49    7.80
   4   0  -8   61.19    8.60
  -4   0   8   55.09    7.70
   3   0  -8   -2.30    2.20
  -3   0   8    3.30    1.90
  -3   0   8    1.00    1.50
   3   0  -8   -0.20    2.10
  -3   0   8   -0.20    2.20
  -3   0   8   -0.40    1.90
   2   0  -8 5887.71  146.09
  -2   0   8 5849.61  141.19
  -2   0   8 6222.88  147.59
   1   0  -8   -0.40    0.80
  -1   0   8   -0.50    0.80
   0   0  -8 5910.31  140.69
   0   0   8 5922.41  141.59
   1   0   8   -0.60    0.70
   1   0   8   -1.00    1.00
  -2   0  -8 1087.49   33.40
  -2   0  -8 1110.29   36.80
  -2   0  -8 1094.69   35.50
  -3   0  -8    0.80    2.90
  -3   0  -8    4.90    2.90
  -3   0  -8    0.90    2.70
  -3   0  -8    0.20    2.20
   3   0   8   -0.50    3.30
   3   0   8   -0.90    2.80
  -3   0  -8    7.50    3.70
   4   0   8   15.40    5.40
   4   0   8   17.60    5.50
  -4   0  -8   16.40    5.20
  -4   0  -8   11.90    4.60
  -4   0  -8   17.30    5.00
  -5   0  -8    2.80    2.60
  -5   0  -8    0.20    1.50
  -5  -1   8    2.30    2.10
   5  -1  -8    1.30    1.50
  -5   1   8    6.50    2.80
   5   1  -8    1.30    1.90
  -5   1   8   -3.30    1.90
  -4  -1   8   22.40    5.70
  -4  -1   8   15.60    4.10
   4  -1  -8   30.20    5.80
  -4  -1   8   30.20    5.90
  -4   1   8   18.80    4.50
   4   1  -8   25.70    5.60
   4   1  -8   10.80    3.90
  -4   1   8   10.30    4.50
  -4   1   8   15.80    4.60
  -3  -1   8    1.50    1.70
  -3  -1   8    0.90    2.30
   3  -1  -8    0.90    2.20
  -3  -1   8   -1.10    1.70
  -3   1   8    2.10    2.00
  -3   1   8    6.80    2.90
  -3   1   8    1.30    2.00
  -3   1   8    2.20    2.20
   2  -1  -8  154.48    9.10
  -2  -1   8  158.48    9.40
  -2   1   8  158.18    9.60
   2   1  -8  156.58    9.30
  -2   1   8  151.18    7.70
  -1  -1   8   44.40    4.10
   1  -1  -8   47.30    4.10
  -1   1   8   44.70    3.40
  -1   1   8   46.20    4.30
   0  -1   8 3734.23   89.09
   0  -1  -8 3588.54   88.99
   0   1   8 3693.03   89.69
   0   1  -8 3548.04   87.69
  -1  -1  -8  220.48   10.30
   1   1   8  218.38    9.90
   1   1   8  215.68   10.20
  -1   1  -8  211.98    9.60
  -1   1  -8  218.48    8.50
  -1   1  -8  227.28   10.80
  -2  -1  -8   29.50    4.70
  -2  -1  -8   37.70    5.40
  -2  -1  -8   33.70    4.70
   2  -1   8   22.60    3.80
  -2   1  -8   25.30    4.50
  -2   1  -8   32.70    3.90
  -2   1  -8   32.30    4.30
  -3  -1  -8    8.00    3.10
  -3  -1  -8    1.00    2.30
   3  -1   8    4.60    3.00
  -3  -1  -8    2.40    2.80
  -3  -1  -8    1.90    2.10
   3  -1   8    1.70    3.40
  -3   1  -8    2.60    2.00
  -3   1  -8    3.70    2.60
   3   1   8    1.90    2.60
  -3   1  -8   -1.30    2.70
  -3   1  -8    0.50    2.90
  -4  -1  -8   34.70    6.90
   4  -1   8   37.40    7.70
   4  -1   8   56.49    8.90
  -4  -1  -8   33.70    7.00
  -4  -1  -8   41.50    7.70
  -4   1  -8   50.89    7.60
   4   1   8   41.60    6.80
  -4   1  -8   45.70    7.30
   4   1   8   42.60    9.60
  -4   1  -8   36.70    7.50
  -5  -1  -8   -1.10    2.60
  -5  -1  -8    2.20    1.70
  -5   1  -8    0.80    1.40
  -5   1  -8   -2.70    2.70
  -5  -2   8    4.00    2.10
   5  -2  -8    4.80    2.40
  -5  -2   8    3.70    3.20
  -5   2   8    6.60    2.60
   5   2  -8    8.70    3.00
  -5   2   8    5.60    2.60
   4  -2  -8   10.40    4.00
  -4  -2   8   13.40    3.80
  -4  -2   8    5.50    4.20
  -4  -2   8   10.00    3.50
   4  -2  -8    9.20    3.90
   4   2  -8    9.80    4.20
  -4   2   8    7.80    3.20
  -4   2   8   13.60    4.30
  -4   2   8    2.90    4.00
   4   2  -8    7.20    3.90
  -3  -2   8   13.00    3.70
   3  -2  -8   12.00    3.20
  -3  -2   8   11.40    3.10
  -3  -2   8   11.20    3.30
   3  -2  -8   15.50    4.70
  -3   2   8    9.20    3.50
  -3   2   8    8.80    3.30
   3   2  -8   11.30    3.30
  -3   2   8    8.20    2.90
  -3   2   8   23.20    5.30
  -2  -2   8  683.23   23.90
   2  -2  -8  720.23   24.70
   2   2  -8  698.73   24.00
  -2   2   8  635.44   22.80
  -2   2   8  717.03   24.50
  -1  -2   8 1210.58   36.20
  -1   2   8 1395.46   38.00
  -1   2   8 1374.36   37.10
   1   2  -8 1398.96   37.30
   0  -2  -8  605.34   19.10
   0  -2   8  602.64   17.70
   0   2  -8  589.54   17.20
   0   2   8  508.65   18.20
  -1  -2  -8  747.63   24.40
   1   2   8  710.43   23.70
  -1   2  -8  705.03   20.60
  -1   2  -8  738.53   19.60
  -1   2  -8  747.23   24.10
   1   2   8  734.63   23.70
  -2  -2  -8  409.76   18.60
  -2  -2  -8  385.86   17.60
   2  -2   8  393.36   14.40
  -2  -2  -8  418.56   20.40
  -2   2  -8  386.16   16.50
  -2   2  -8  417.76   14.50
  -2   2  -8  423.36   19.20
  -2   2  -8  391.56   15.20
  -3  -2  -8   13.80    4.50
  -3  -2  -8   25.90    6.00
   3  -2   8   31.20    7.00
  -3  -2  -8   15.60    4.40
  -3  -2  -8   20.10    5.50
   3  -2   8   10.30    3.90
   3   2   8   17.30    5.30
   3   2   8   24.10    5.50
  -3   2  -8   19.60    4.60
  -3   2  -8   15.00    3.80
  -3   2  -8   26.90    5.90
  -3   2  -8   15.40    4.50
  -4  -2  -8   -0.60    2.30
  -4  -2  -8    8.30    5.00
   4  -2   8    6.70    3.80
  -4  -2  -8    8.70    3.90
   4   2   8    5.20    3.20
  -4   2  -8    0.60    3.00
  -4   2  -8    3.40    2.80
  -5  -2  -8    9.60    4.00
   5  -2   8   11.30    5.10
  -5  -2  -8    3.80    2.10
  -5   2  -8    7.60    3.00
   5  -3  -8    4.60    2.10
   5   3  -8    2.70    2.10
  -5   3   8    0.90    1.40
  -5   3   8    3.70    1.90
   4  -3  -8   22.70    5.60
  -4  -3   8   26.30    5.90
  -4  -3   8   27.90    5.90
  -4  -3   8   20.90    6.30
   4  -3  -8   17.20    5.00
   4   3  -8   12.90    4.00
   4   3  -8   18.20    5.10
  -4   3   8   20.30    5.10
  -4   3   8   24.20    6.30
  -4   3   8   29.10    5.30
  -3  -3   8   18.80    4.70
   3  -3  -8   32.10    5.20
  -3  -3   8   24.10    5.40
  -3  -3   8   24.80    4.90
   3  -3  -8   22.30    5.10
  -3   3   8   14.00    4.00
  -3   3   8   22.60    5.00
   3   3  -8   15.90    4.10
  -3   3   8   26.40    5.40
  -3   3   8   25.10    5.10
  -2  -3   8   15.80    4.30
   2  -3  -8   17.90    3.80
  -2  -3   8   14.00    3.10
   2   3  -8   12.70    3.30
  -2   3   8   12.80    3.10
  -2   3   8   16.60    3.60
  -1  -3   8  236.58    9.80
   1  -3  -8  233.38   11.30
   1   3  -8  230.78   10.20
  -1   3   8  232.08   10.80
  -1   3   8  213.68   10.90
   0  -3   8 1576.64   40.40
   0  -3  -8 1590.64   43.60
   0   3   8 1632.54   42.90
   0   3  -8 1545.15   38.50
   0   3  -8 1610.34   38.60
   0   3  -8 1580.24   41.30
  -1  -3  -8  611.04   22.20
  -1  -3  -8  632.54   22.50
  -1   3  -8  625.24   22.20
  -2  -3  -8  120.09    9.70
  -2  -3  -8  123.99    9.50
  -2  -3  -8  102.69   10.30
  -2   3  -8  113.79    8.40
  -2   3  -8  123.29    9.90
   3  -3   8  136.89   12.40
  -3  -3  -8  143.89   12.20
   3  -3   8  153.38   13.50
  -3  -3  -8  135.39   13.70
  -3  -3  -8  149.59   12.80
   3   3   8  123.19   12.90
  -3   3  -8  159.38   14.10
  -3   3  -8  150.28   11.50
  -3   3  -8  136.09   11.10
  -4  -3  -8    3.40    3.40
   4  -3   8    2.30    3.10
  -4  -3  -8   13.70    6.10
  -4  -3  -8    7.40    4.10
  -4  -3  -8    7.30    4.10
  -4   3  -8    3.70    3.20
  -4   3  -8    9.60    3.30
   4   3   8    6.40    3.20
  -5  -3  -8    2.80    2.40
   5  -3   8   10.80    4.00
  -5   3  -8    0.10    2.80
   5   3   8   -3.00    3.20
  -5   3  -8    5.00    2.20
  -5  -4   8    0.10    1.60
   5  -4  -8    4.00    2.20
  -5   4   8    0.40    1.70
   5   4  -8    5.00    2.50
  -5   4   8    0.40    1.60
   4  -4  -8   -1.90    1.70
  -4  -4   8   -2.80    3.20
  -4  -4   8    1.80    2.80
  -4   4   8    2.30    2.40
   4   4  -8   -0.80    2.80
  -3  -4   8  124.89   10.40
   3  -4  -8  127.49   11.10
  -3  -4   8  134.39   11.00
   3  -4  -8  124.99   10.50
  -3  -4   8  121.19   11.00
  -3   4   8  128.09   10.60
  -3   4   8  124.89   10.40
  -3   4   8  121.59   11.10
  -3   4   8  126.79   11.90
   3   4  -8  131.29   11.60
  -2  -4   8   39.50    5.90
   2  -4  -8   37.70    6.00
   2  -4  -8   28.40    5.00
  -2  -4   8   31.70    4.20
  -2  -4   8   34.60    5.40
  -2   4   8   25.80    5.60
  -2   4   8   35.70    5.70
   2   4  -8   31.70    5.30
  -2   4   8   33.20    5.50
  -2   4   8   29.20    4.50
  -2   4   8   32.30    5.60
   1  -4  -8  167.18   10.20
  -1  -4   8  165.48    7.70
   1  -4  -8  168.88    9.40
  -1   4   8  167.88    9.00
   1   4  -8  175.18    8.40
   1   4  -8  145.09   12.10
  -1   4   8  172.18   10.40
   0  -4  -8  308.57   13.40
   0  -4  -8  300.07   13.70
   0   4   8  281.37   11.80
   0   4  -8  291.67   11.70
  -1  -4  -8  593.44   23.00
  -1  -4  -8  639.24   23.80
  -1  -4  -8  653.03   26.30
  -1   4  -8  638.34   23.60
  -2  -4  -8   27.00    6.00
   2  -4   8   28.90    6.00
  -2  -4  -8   25.90    5.60
  -2  -4  -8   32.60    6.40
  -2   4  -8   31.70    5.40
  -2   4  -8   26.70    5.00
  -3  -4  -8   19.70    5.90
  -3  -4  -8   22.10    6.90
   3  -4   8   25.50    6.80
  -3  -4  -8   26.60    6.30
  -3  -4  -8   19.60    5.30
  -3   4  -8   12.30    4.40
  -3   4  -8   16.70    4.60
  -4  -4  -8   34.90    7.30
  -4  -4  -8   39.30    7.40
  -4  -4  -8   19.60    5.10
   4  -4   8   33.00    6.80
  -4  -4  -8   32.40    7.80
  -4   4  -8   31.50    6.00
  -4   4  -8   27.60    5.40
   4   4   8   28.80    6.20
  -5  -4  -8    7.70    2.70
   5  -4   8    2.50    3.00
   5  -4   8    5.20    1.90
  -5   4  -8    5.70    2.20
   5   4   8    1.20    2.60
  -5   4  -8    5.50    2.60
  -5  -5   8   -1.30    0.90
   5  -5  -8    2.30    2.30
   5  -5  -8   -0.60    1.70
   5   5  -8    0.20    1.60
  -5   5   8    1.10    1.50
   4  -5  -8   29.10    5.80
  -4  -5   8   28.10    5.70
   4   5  -8   34.90    6.50
  -4   5   8   35.90    5.40
  -3  -5   8   20.80    5.00
   3  -5  -8   32.20    6.20
   3  -5  -8   34.70    6.70
   3   5  -8   38.00    6.90
  -3   5   8   25.90    5.60
  -3   5   8   34.30    7.90
  -3   5   8   30.00    6.10
   2  -5  -8  142.89   10.30
   2  -5  -8  143.39   11.50
  -2  -5   8  145.09    8.70
  -2  -5   8  138.29   11.10
   2  -5  -8  142.29   10.30
  -2   5   8  146.09   10.10
  -2   5   8  139.19   10.60
  -2   5   8  146.29   11.70
  -2   5   8  143.89    9.40
  -2   5   8  147.09   11.60
   2   5  -8  130.99   10.80
   1  -5  -8   88.29    7.30
   1  -5  -8   98.69    8.70
   1  -5  -8   86.99    7.80
  -1   5   8   89.19    7.30
  -1   5   8   86.89    6.20
   1   5  -8   89.59    7.50
  -1   5   8   88.09    8.00
   0  -5  -8  176.38   11.10
   0  -5  -8  171.48   10.30
   0   5  -8  176.98    9.80
   0   5   8  180.48    9.00
   0   5  -8  187.08    9.30
  -1  -5  -8  123.09   10.70
  -1  -5  -8  155.78   10.60
  -1  -5  -8  161.28   12.10
  -1  -5  -8  152.08   10.90
  -1   5  -8  152.88   10.00
  -1   5  -8  158.68   10.70
   2  -5   8   39.50    7.20
   2  -5   8   26.60    7.00
  -2  -5  -8   25.70    5.30
  -2  -5  -8   49.10    9.90
  -2  -5  -8   33.70    7.20
   2  -5   8   29.30    5.70
  -2  -5  -8   30.20    6.40
  -2   5  -8   24.40    5.90
  -2   5  -8   25.40    4.80
   2   5   8   20.60    5.60
   3  -5   8   54.59    9.20
  -3  -5  -8   57.39    9.00
  -3  -5  -8   50.19   10.30
  -3  -5  -8   55.99    8.00
  -3  -5  -8   67.99    9.60
  -3   5  -8   60.59    7.50
  -3   5  -8   51.29    7.50
   4  -5   8    2.00    2.00
  -4  -5  -8    0.10    2.60
  -4  -5  -8    1.90    4.40
  -4  -5  -8   -1.30    3.00
  -4  -5  -8    3.70    5.10
   4  -5   8   -0.50    2.00
  -4   5  -8    2.40    2.50
  -4   5  -8   -3.00    1.80
   4   5   8   -3.80    2.10
  -4  -6   8    1.00    1.90
   4  -6  -8   -1.00    1.60
   4  -6  -8   -3.00    1.80
  -4   6   8   -1.30    1.70
   4   6  -8    3.30    3.30
   3  -6  -8    9.70    3.70
   3  -6  -8   16.20    4.20
  -3  -6   8   15.10    4.60
  -3   6   8   14.50    4.30
   3   6  -8   18.70    5.50
  -2  -6   8   13.70    4.10
   2  -6  -8   12.80    3.90
   2  -6  -8    5.80    3.30
   2  -6  -8   10.00    3.90
  -2   6   8   16.30    4.20
  -2   6   8   10.70    5.10
  -2   6   8   10.00    3.60
   2   6  -8   10.70    3.70
  -1  -6   8  122.39    9.50
   1  -6  -8  128.39    9.90
   1  -6  -8  117.19   10.20
   1  -6  -8  114.59   11.20
   1  -6  -8  117.69    9.70
  -1   6   8  121.19   10.70
  -1   6   8  117.09    9.30
   1   6  -8  127.19    9.60
   1   6  -8  114.99    9.90
  -1   6   8  119.79    8.20
  -1   6   8  117.39    7.30
   0  -6  -8   13.50    4.30
   0  -6   8   18.90    4.00
   0  -6  -8   36.80    7.50
   0  -6  -8   17.50    4.10
   0  -6  -8   29.00    5.10
   0   6   8   29.20    5.20
   0   6  -8   19.70    4.20
   0   6  -8   22.40    4.50
  -1  -6  -8  209.38   15.10
  -1  -6  -8  227.78   16.50
  -1  -6  -8  238.18   15.50
   1  -6   8  235.78   12.80
  -1  -6  -8  249.58   14.70
   1  -6   8  211.98   15.50
  -1  -6  -8  253.27   17.10
  -1   6  -8  237.38   14.50
  -1   6  -8  234.78   14.00
   1   6   8  232.08   13.90
  -1   6  -8  243.88   13.40
   2  -6   8   -3.50    2.10
  -2  -6  -8   -1.40    1.70
  -2  -6  -8   -4.00    4.20
   2  -6   8    0.40    2.60
  -2   6  -8   -1.40    3.70
  -2   6  -8    1.60    3.00
  -2   6  -8   -2.40    2.20
   2   6   8   -4.20    3.70
   3  -6   8    0.60    2.70
  -3  -6  -8    0.80    3.70
  -3  -6  -8    2.30    3.20
   3  -6   8   -1.20    2.10
  -3  -6  -8    0.20    2.90
  -3  -6  -8    3.40    2.70
  -3   6  -8    2.00    2.60
  -3   6  -8   -2.50    2.00
   4  -6   8    4.90    2.20
  -4  -6  -8    2.00    4.60
  -4  -6  -8    1.40    2.90
  -4  -6  -8   14.40    4.50
   4  -6   8    1.70    2.10
   4   6   8    3.10    2.20
  -4   6  -8    2.00    2.20
  -4   6  -8    5.90    2.70
  -4  -7   8   21.10    4.00
   4  -7  -8   26.30    5.20
   4  -7  -8   32.80    5.00
   4   7  -8   38.80    6.60
  -4   7   8   33.00    4.20
  -3  -7   8    4.90    2.40
   3  -7  -8    1.30    3.00
  -3   7   8    3.00    2.20
   3   7  -8   -0.90    2.10
  -2  -7   8   11.70    3.30
   2  -7  -8   13.00    4.30
   2  -7  -8   11.10    3.40
   2  -7  -8   16.30    5.00
   2   7  -8   10.10    3.90
  -2   7   8   12.30    3.50
   1  -7  -8   -1.10    1.90
   1  -7  -8    7.80    3.80
   1  -7  -8    2.90    2.80
  -1  -7   8    2.30    2.20
   1   7  -8    1.60    2.20
  -1   7   8   -1.10    1.70
   1   7  -8    5.90    2.60
   0  -7  -8   77.69    8.50
   0  -7  -8   68.69    8.50
   0  -7  -8   80.49    8.40
   0  -7  -8   64.59    7.80
   0  -7   8   67.19    7.50
   0   7   8   76.69    8.20
   0   7  -8   49.20    7.50
   0   7  -8   60.19    7.00
  -1  -7  -8   16.60    4.50
   1  -7   8    7.10    2.80
   1  -7   8   12.80    3.90
  -1  -7  -8   14.50    4.80
  -1  -7  -8   12.80    3.90
  -1  -7  -8    7.70    3.80
   1   7   8   22.00    7.80
  -1   7  -8   16.20    5.00
  -1   7  -8   13.30    3.80
  -1   7  -8    9.50    3.50
   2  -7   8    2.60    3.00
   2  -7   8    5.50    2.70
  -2  -7  -8    8.20    3.90
  -2  -7  -8    5.40    3.30
  -2  -7  -8    3.20    3.30
  -2  -7  -8    2.70    2.50
  -2   7  -8    1.50    2.00
  -2   7  -8    2.10    2.90
  -3  -7  -8   21.90    4.60
   3  -7   8   13.10    3.20
  -3  -7  -8   20.40    6.20
  -3  -7  -8   20.90    6.10
  -3  -7  -8   18.60    5.40
   3  -7   8   18.90    5.40
  -3   7  -8   12.30    3.70
  -3   7  -8   15.60    4.20
  -4  -7  -8   24.60    4.40
   4   7   8   26.00    4.70
  -4   7  -8   20.70    4.10
  -4   7  -8   25.00    4.10
  -4  -8   8    1.80    1.40
   4  -8  -8    1.40    1.90
  -4   8   8   -0.60    1.40
  -4   8   8   -1.10    1.70
   3  -8  -8    6.40    2.80
   3  -8  -8    2.30    1.90
  -3  -8   8    0.40    1.60
   3   8  -8    1.70    2.30
  -3   8   8    4.10    1.80
  -2  -8   8    3.40    2.30
   2  -8  -8   -1.30    1.70
   2  -8  -8   -1.20    1.90
  -2   8   8    2.10    1.90
   2   8  -8   -0.80    2.00
   1  -8  -8   67.09    8.60
  -1  -8   8   60.69    7.60
   1  -8  -8   67.99    8.80
   1   8  -8   61.29    7.70
  -1   8   8   57.09    7.20
   1   8  -8   69.59    7.80
   0  -8  -8   81.99    8.80
   0  -8  -8   78.39    9.30
   0  -8  -8   69.79    9.50
   0  -8   8   83.09    8.30
   0  -8  -8   72.19    9.70
   0   8  -8   79.99    8.30
   0   8  -8   87.19    8.40
   0   8   8   85.19    8.70
  -1  -8  -8  146.19   13.40
   1  -8   8  141.19   13.30
  -1  -8  -8  149.99   13.40
  -1  -8  -8  144.59   13.00
   1  -8   8  151.98   11.00
  -1   8  -8  147.79   10.70
  -1   8  -8  152.88   11.50
   1   8   8  151.78   15.20
  -2  -8  -8    7.80    3.70
  -2  -8  -8    8.90    5.30
   2  -8   8    9.30    2.60
  -2  -8  -8    6.50    4.50
  -2  -8  -8    9.40    4.00
   2  -8   8    6.40    4.20
  -2   8  -8   11.30    3.80
  -2   8  -8   11.50    3.20
   3  -8   8   10.20    3.60
  -3  -8  -8   21.90    5.00
  -3  -8  -8   16.00    5.00
   3  -8   8   21.80    3.40
  -3   8  -8   16.40    3.60
  -3   8  -8   13.50    3.70
   3  -9  -8    1.70    2.10
   3  -9  -8    2.60    2.30
  -3   9   8    2.70    3.00
   3   9  -8   -2.20    2.20
   2  -9  -8    4.90    2.90
  -2  -9   8    3.10    2.10
   2  -9  -8    3.80    2.60
  -2   9   8    3.10    2.30
   2   9  -8    2.90    2.60
   1  -9  -8   60.39    7.40
  -1  -9   8   65.49    7.50
   1  -9  -8   62.99    8.40
   1   9  -8   61.99    7.60
  -1   9   8   62.79    7.20
   0  -9   8   -0.30    1.80
   0  -9  -8    3.60    2.80
   0  -9  -8    0.10    2.40
   0   9   8    3.30    2.20
   0   9  -8    3.70    2.10
   0   9  -8    4.00    2.50
  -1  -9  -8    2.10    2.10
  -1  -9  -8    4.60    3.00
   1  -9   8    4.10    1.90
  -1   9  -8    3.20    2.00
  -1   9  -8    3.80    2.60
  -2  -9  -8   -1.80    1.50
   2  -9   8   -2.00    1.30
  -2   9  -8   -0.90    1.60
  -2   9  -8   -3.30    1.80
  -3  -9  -8    3.40    2.00
  -3  -9  -8   12.10    4.00
  -3   9  -8    6.40    2.20
  -3   9  -8    5.70    1.90
  -2 -10   8   -1.40    1.50
   2 -10  -8    2.70    2.00
   2 -10  -8   -0.20    2.00
   2  10  -8    0.70    2.10
  -2  10   8    0.40    1.50
  -1 -10   8   -0.40    1.80
   1 -10  -8    1.60    1.90
   1 -10  -8    5.30    2.50
  -1  10   8    1.10    1.70
   1  10  -8    3.80    2.30
   0 -10   8   -0.40    1.70
   0 -10  -8   -2.60    1.90
   0 -10  -8    1.30    1.90
   0  10  -8   -2.30    1.30
   0  10   8   -1.30    1.50
   0  10  -8    0.80    2.00
  -1 -10  -8    2.30    2.60
  -1 -10  -8    2.90    2.10
   1 -10   8    5.50    1.70
  -1  10  -8    2.00    2.10
  -1  10  -8    0.20    2.00
  -2 -10  -8    5.30    2.60
  -2 -10  -8   11.80    3.50
  -2  10  -8    6.40    2.40
  -2  10  -8    9.10    2.80
   1 -11  -8   -1.40    2.40
   1 -11  -8    4.20    1.60
   1  11  -8    2.00    2.50
  -1  11   8    5.20    2.80
   0 -11  -8    2.80    2.30
   0 -11  -8    3.70    2.10
   0  11  -8    5.20    2.60
   0  11   8    6.50    3.00
  -1 -11  -8    1.70    2.00
  -1 -11  -8   -1.60    2.10
  -1  11  -8   -2.40    1.40
  -1  11  -8   -0.10    1.80
  -5   0   9    4.10    2.10
   5   0  -9    6.30    2.30
  -5   0   9    8.70    2.80
  -5   0   9   10.60    3.20
  -4   0   9    1.30    2.80
  -4   0   9    2.20    2.90
  -4   0   9    4.20    3.30
   4   0  -9    1.90    2.90
  -3   0   9  111.59    9.30
  -3   0   9  116.49   10.00
  -3   0   9  115.39    9.70
   3   0  -9  120.09    9.70
   3   0  -9  108.59    9.70
   2   0  -9   -1.00    1.70
  -2   0   9    0.50    0.80
  -2   0   9   -2.20    1.00
   1   0  -9  873.01   24.10
  -1   0   9  915.51   27.20
   0   0  -9   -0.20    0.60
   0   0   9    0.20    1.20
  -1   0  -9    3.50    1.40
   1   0   9    8.60    1.80
   1   0   9    5.60    2.10
  -2   0  -9   -1.00    1.90
  -2   0  -9    0.10    1.70
  -2   0  -9    0.00    0.90
  -2   0  -9    2.20    1.50
  -3   0  -9 1332.97   46.00
  -3   0  -9 1333.27   45.50
  -3   0  -9 1364.16   44.60
   3   0   9 1351.76   47.30
  -3   0  -9 1366.86   48.30
  -3   0  -9 1329.17   45.30
   3   0   9 1347.57   46.00
  -4   0  -9   -1.80    3.90
  -4   0  -9    0.10    2.70
  -4   0  -9   -0.70    2.00
   4   0   9    5.40    4.10
  -5   0  -9   16.20    3.70
  -5   0  -9   16.70    4.00
   5  -1  -9   -0.20    1.60
  -5  -1   9    1.70    1.90
  -5  -1   9   -0.40    3.50
  -5   1   9    1.80    2.20
  -5   1   9    1.90    2.60
  -5   1   9    1.00    1.80
   5   1  -9    1.20    1.70
  -4  -1   9    3.30    2.70
   4  -1  -9    1.00    2.10
   4  -1  -9   13.10    4.00
  -4  -1   9    8.40    3.50
  -4  -1   9    9.30    3.60
  -4   1   9    3.90    2.80
  -4   1   9    5.40    3.80
  -4   1   9    4.60    3.20
   4   1  -9   11.10    4.10
   4   1  -9    2.70    3.10
  -3  -1   9  282.17   15.80
  -3  -1   9  264.27   14.40
   3  -1  -9  272.87   15.20
   3  -1  -9  257.17   15.70
  -3  -1   9  266.57   15.40
  -3   1   9  274.37   15.90
   3   1  -9  282.67   15.30
  -3   1   9  253.97   14.70
  -3   1   9  259.37   15.50
  -3   1   9  268.37   12.40
  -2  -1   9    0.50    1.30
   2  -1  -9    4.30    1.70
   2   1  -9   -2.40    1.60
  -2   1   9    1.80    1.10
  -2   1   9    0.70    1.30
  -1  -1   9   29.10    3.40
  -1   1   9   32.10    3.80
   0  -1  -9   67.49    4.90
   0  -1   9   62.39    4.80
   0   1   9   68.79    5.30
   0   1  -9   69.09    4.30
  -1  -1  -9 1537.15   43.50
   1  -1   9 1588.44   42.90
  -1   1  -9 1630.54   40.90
   1   1   9 1564.34   43.10
  -1   1  -9 1491.95   43.80
  -1   1  -9 1566.64   42.70
   1   1   9 1505.95   43.50
  -2  -1  -9   20.30    4.00
  -2  -1  -9   22.70    4.60
  -2  -1  -9   15.40    3.90
  -2   1  -9   16.70    3.20
  -2   1  -9   17.90    3.80
  -2   1  -9   24.60    4.00
  -3  -1  -9   21.40    5.70
  -3  -1  -9   22.90    5.80
   3  -1   9   29.00    6.20
   3  -1   9   19.70    5.10
  -3  -1  -9   27.80    5.70
  -3  -1  -9   17.30    4.90
  -3   1  -9   22.80    5.30
  -3   1  -9   25.10    5.30
  -3   1  -9   29.50    6.30
   3   1   9   21.70    5.00
   3   1   9   35.70    6.90
  -3   1  -9   20.30    5.00
  -4  -1  -9    4.70    4.30
   4  -1   9   12.80    5.30
  -4  -1  -9    5.30    3.40
   4  -1   9    5.70    4.00
   4   1   9    8.00    4.00
  -4   1  -9   -5.10    5.30
  -4   1  -9   -1.40    2.30
   4   1   9   -1.80    3.10
  -4   1  -9    3.10    3.10
  -5  -1  -9    6.90    3.40
  -5  -1  -9    3.00    1.80
  -5   1  -9    5.20    2.90
  -5   1  -9    8.00    2.90
   5  -2  -9   -2.50    1.30
  -5  -2   9   -3.00    1.50
  -5   2   9   -0.30    1.60
   5   2  -9    3.40    2.30
  -4  -2   9    2.00    3.60
   4  -2  -9    1.40    2.60
   4  -2  -9    0.10    3.10
  -4  -2   9    3.20    2.90
  -4  -2   9    6.10    3.50
  -4   2   9    3.80    2.20
   4   2  -9    3.30    2.80
   4   2  -9   -1.00    2.40
  -4   2   9   -4.00    3.50
  -3  -2   9   46.00    6.70
   3  -2  -9   41.00    5.90
  -3  -2   9   30.50    5.30
   3  -2  -9   44.80    6.40
  -3  -2   9   31.10    5.80
  -3   2   9   42.90    6.20
  -3   2   9   41.70    6.30
  -3   2   9   55.09    6.70
   3   2  -9   40.70    6.10
  -3   2   9   43.80    6.00
  -2  -2   9  617.14   22.40
   2  -2  -9  602.34   22.60
   2   2  -9  590.64   21.90
  -2   2   9  622.34   23.10
  -2   2   9  615.24   21.30
  -1  -2   9   87.49    5.80
  -1   2   9   80.79    6.30
  -1   2   9   77.99    5.50
   1   2  -9   86.79    6.00
   0  -2   9 1377.36   36.40
   0  -2  -9 1355.76   37.90
   0   2   9 1336.47   37.70
   0   2  -9 1354.76   35.00
   0   2  -9 1334.77   35.60
  -1  -2  -9   84.79    6.80
  -1   2  -9   89.99    4.40
  -1   2  -9   87.39    5.10
  -1   2  -9   87.29    6.50
   1   2   9   92.69    6.70
  -2  -2  -9    3.10    1.60
   2  -2   9    3.50    1.70
  -2  -2  -9    3.60    2.40
  -2  -2  -9    1.20    2.30
  -2   2  -9    4.70    2.60
  -2   2  -9    0.30    1.90
  -2   2  -9    3.30    1.40
  -2   2  -9    6.20    2.30
  -3  -2  -9  155.28   13.90
   3  -2   9  149.79   12.10
  -3  -2  -9  161.18   12.70
  -3  -2  -9  166.58   14.00
  -3  -2  -9  158.58   13.00
   3  -2   9  155.88   13.00
  -3   2  -9  166.68   12.00
  -3   2  -9  143.79   10.10
   3   2   9  162.08   12.80
   3   2   9  139.09   12.30
  -3   2  -9  152.48   13.50
  -3   2  -9  140.69   11.80
  -4  -2  -9  115.69   11.30
  -4  -2  -9  119.79   11.30
   4  -2   9  105.19   11.10
  -4  -2  -9   98.99   12.50
  -4   2  -9  113.79   10.50
  -4   2  -9  101.89   10.20
   4   2   9  102.59   10.50
   5  -2   9    0.20    4.40
  -5  -2  -9    0.30    3.50
  -5   2  -9    0.00    2.10
  -5   2  -9    3.30    2.70
  -5  -3   9    0.80    1.50
   5  -3  -9    6.30    2.50
  -5   3   9    2.30    1.80
  -5   3   9    5.20    2.20
   5   3  -9   -0.20    1.70
   4  -3  -9   15.10    4.40
  -4  -3   9   14.10    4.40
   4  -3  -9    8.80    3.90
  -4  -3   9   10.50    5.10
  -4  -3   9    7.60    3.00
  -4   3   9    3.30    4.60
   4   3  -9   12.90    3.90
   4   3  -9   14.30    4.60
  -4   3   9   13.60    4.00
  -4   3   9    6.20    2.90
   3  -3  -9   40.90    6.40
  -3  -3   9   38.00    6.40
  -3  -3   9   33.70    6.20
  -3  -3   9   36.40    5.90
   3  -3  -9   34.80    5.70
  -3   3   9   36.00    5.90
  -3   3   9   41.20    6.10
   3   3  -9   49.20    6.80
  -3   3   9   31.70    6.10
  -3   3   9   41.20    7.20
   2  -3  -9    6.80    2.70
  -2  -3   9    5.10    2.10
  -2   3   9    4.10    1.90
   2   3  -9    7.20    2.60
  -1  -3   9  677.53   21.80
   1  -3  -9  670.73   23.60
   1  -3  -9  732.93   23.90
   1   3  -9  692.23   22.30
  -1   3   9  693.23   23.30
  -1   3   9  702.13   23.50
   0  -3   9  324.37   11.50
   0  -3  -9  315.07   13.60
   0   3  -9  325.07    9.90
   0   3  -9  344.37    9.90
   0   3   9  326.57   13.20
   0   3  -9  332.47   11.90
  -1  -3  -9 1326.37   40.50
  -1  -3  -9 1419.36   41.90
  -1   3  -9 1414.66   41.00
   2  -3   9  204.08   18.70
   2  -3   9  177.98   13.10
  -2  -3  -9  193.68   13.00
  -2  -3  -9  174.88   13.70
  -2  -3  -9  187.98   12.10
  -2   3  -9  173.48   10.80
  -2   3  -9  191.48   12.60
  -3  -3  -9   82.89    9.70
   3  -3   9   80.49   10.00
   3  -3   9   80.59   10.00
  -3  -3  -9   88.19   11.20
  -3  -3  -9   87.09    9.80
  -3   3  -9   82.19    9.00
  -3   3  -9   88.19    9.00
  -3   3  -9   91.49   11.30
   3   3   9   97.99   11.10
   4  -3   9    1.80    3.10
  -4  -3  -9    1.00    4.20
  -4  -3  -9    1.90    2.50
  -4  -3  -9    1.70    2.40
  -4   3  -9    3.80    3.10
  -4   3  -9    6.90    3.20
   4   3   9    3.60    3.00
   5  -3   9   -3.90    2.80
  -5   3  -9    0.50    1.50
  -5   3  -9   -2.20    2.60
   5   3   9   -1.80    2.70
  -5  -4   9   -0.30    1.40
  -5   4   9   -0.80    1.60
   5   4  -9   -1.40    1.40
  -5   4   9    3.10    2.00
  -4  -4   9    8.70    3.60
   4  -4  -9   12.00    4.10
  -4   4   9    6.30    2.40
  -4   4   9   11.10    3.70
   4   4  -9    4.60    2.90
  -3  -4   9   52.49    7.50
   3  -4  -9   55.69    7.40
   3  -4  -9   51.49    7.50
  -3  -4   9   54.69    7.40
   3   4  -9   65.79    8.30
  -3   4   9   50.99    7.10
  -3   4   9   56.69    6.80
  -3   4   9   52.49    6.90
  -3   4   9   46.50    8.60
  -2  -4   9  149.79   10.50
   2  -4  -9  142.89   10.30
  -2  -4   9  160.38    9.40
   2  -4  -9  155.88   11.30
  -2   4   9  145.89   10.40
  -2   4   9  153.28   11.30
  -2   4   9  154.28   10.30
   2   4  -9  147.69   10.30
  -2   4   9  165.08   11.30
  -1  -4   9  175.98    8.40
   1  -4  -9  188.18   11.00
   1  -4  -9  189.88   10.40
   1   4  -9  181.48   10.60
  -1   4   9  196.98   11.30
  -1   4   9  185.48    9.90
   1   4  -9  171.88    9.10
   0  -4  -9 1248.38   37.30
   0  -4  -9 1227.88   37.50
   0   4  -9 1211.98   34.20
   0   4   9 1231.98   35.40
  -1  -4  -9  183.48   11.40
  -1  -4  -9  183.28   12.80
  -1  -4  -9  180.38   11.00
  -1   4  -9  188.68   11.20
  -2  -4  -9  199.38   14.80
  -2  -4  -9  220.68   16.00
   2  -4   9  202.28   14.80
   2  -4   9  214.68   13.80
  -2  -4  -9  209.58   13.60
  -2  -4  -9  226.58   15.50
   2   4   9  234.88   14.90
  -2   4  -9  214.48   12.30
  -2   4  -9  219.18   14.50
  -3  -4  -9   19.80    5.90
   3  -4   9   29.60    7.40
  -3  -4  -9   12.80    4.50
   3  -4   9   16.00    5.00
  -3  -4  -9   12.10    5.00
   3   4   9   22.80    6.30
  -3   4  -9    8.90    4.20
  -3   4  -9   15.20    4.30
  -4  -4  -9   23.60    5.80
  -4  -4  -9   27.50    7.20
  -4  -4  -9   29.70    8.60
   4  -4   9   35.00    6.80
  -4  -4  -9   31.90    6.20
  -4   4  -9   44.90    6.60
  -4   4  -9   36.90    5.80
   4   4   9   32.30    6.00
  -5  -4  -9    2.60    1.90
   5  -4   9    1.90    2.70
  -5   4  -9    6.00    2.30
   5   4   9   -2.30    2.50
  -5   4  -9    1.80    2.30
  -5  -5   9    2.60    1.40
   5  -5  -9   -0.40    1.80
   5  -5  -9    1.70    2.20
  -5   5   9   -3.10    2.00
   5   5  -9   -0.10    1.60
  -4  -5   9    4.10    2.30
   4  -5  -9   13.80    4.40
  -4   5   9    9.40    3.30
  -4   5   9    8.70    3.00
   4   5  -9    8.20    3.30
  -3  -5   9    8.50    3.30
   3  -5  -9    2.50    3.10
   3  -5  -9    6.60    3.20
  -3   5   9    5.20    3.00
  -3   5   9    0.50    2.10
  -3   5   9   18.00    6.00
   3   5  -9    4.60    4.00
  -2  -5   9   93.69    8.50
   2  -5  -9   71.99   10.20
   2  -5  -9   86.49    8.40
   2  -5  -9   86.09    9.00
   2  -5  -9  102.79    8.80
  -2   5   9   80.69    7.80
   2   5  -9   85.49    8.60
  -2   5   9   92.69    8.60
  -2   5   9   75.69    8.40
  -2   5   9   79.09    8.70
   1  -5  -9   -2.90    2.10
   1  -5  -9    4.10    2.30
   1  -5  -9    1.30    1.80
  -1   5   9    3.70    1.90
  -1   5   9    5.50    2.40
  -1   5   9    1.90    2.30
   0  -5  -9    5.00    2.40
   0  -5  -9    2.80    2.40
   0   5  -9    6.80    2.10
   0   5  -9    5.70    2.70
   0   5   9    7.40    2.10
   1  -5   9   88.09   10.10
   1  -5   9   83.79    9.00
  -1  -5  -9   80.19    8.40
  -1  -5  -9   84.39    9.10
  -1  -5  -9   86.39    9.20
  -1  -5  -9   92.09    8.10
  -1   5  -9   83.49    7.70
  -1   5  -9   87.49    7.50
   2  -5   9  282.97   16.90
   2  -5   9  257.87   13.90
  -2  -5  -9  262.47   18.10
   2  -5   9  260.27   17.80
  -2  -5  -9  255.67   19.00
  -2  -5  -9  223.78   17.10
  -2   5  -9  259.37   15.00
  -2   5  -9  260.47   14.50
  -2   5  -9  251.77   16.60
   2   5   9  242.68   16.40
  -3  -5  -9   30.30    7.20
  -3  -5  -9   32.20    7.30
  -3  -5  -9   39.00    7.00
   3  -5   9   37.20    8.20
  -3  -5  -9   58.59   11.10
  -3   5  -9   33.80    6.40
  -3   5  -9   36.20    5.70
  -4  -5  -9   -2.20    3.00
  -4  -5  -9   17.20    5.80
  -4  -5  -9    1.10    2.30
   4  -5   9    5.50    2.40
  -4  -5  -9    0.60    3.70
   4  -5   9    3.00    3.00
  -4   5  -9    0.10    1.90
   4   5   9   -2.60    2.30
  -4   5  -9   -0.70    1.40
   4  -6  -9   12.40    3.90
  -4  -6   9    8.30    3.10
   4  -6  -9   12.30    3.50
   4   6  -9   15.40    4.30
  -4   6   9   13.00    3.30
   3  -6  -9   91.89   10.90
  -3  -6   9   90.19    9.60
   3  -6  -9   94.49    9.90
  -3   6   9   88.19    8.80
   3   6  -9   91.59   10.10
  -2  -6   9   -0.70    2.20
   2  -6  -9    2.20    2.50
   2  -6  -9    5.10    3.90
   2  -6  -9    0.10    2.50
   2   6  -9    1.60    2.60
  -2   6   9   -0.70    3.50
  -2   6   9    2.60    2.10
   1  -6  -9    2.50    2.10
  -1  -6   9    6.00    3.00
   1  -6  -9    6.00    3.10
   1  -6  -9   15.40    4.10
   1  -6  -9    9.60    3.70
   1   6  -9    3.10    2.50
   1   6  -9    5.40    3.60
  -1   6   9    4.90    3.10
  -1   6   9    7.30    2.60
  -1   6   9    2.10    2.10
   0  -6  -9  164.88   12.20
   0  -6  -9  196.58   14.30
   0  -6   9  184.98   11.10
   0  -6  -9  188.28   13.30
   0  -6  -9  190.28   12.50
   0   6   9  177.28   11.60
   0   6  -9  185.38   10.80
   0   6  -9  189.38   10.70
   1  -6   9   15.80    4.70
   1  -6   9   15.60    3.40
  -1  -6  -9   23.70    5.50
  -1  -6  -9   12.70    4.00
  -1  -6  -9   14.70    5.10
  -1  -6  -9   13.80    4.00
  -1   6  -9   20.70    4.40
   1   6   9   13.90    7.20
  -1   6  -9   26.70    5.60
  -1   6  -9   21.40    5.00
  -2  -6  -9    0.90    4.00
   2  -6   9    5.80    3.40
  -2  -6  -9    1.60    2.50
   2  -6   9   -4.00    2.00
  -2  -6  -9    1.40    2.00
  -2  -6  -9    0.60    2.00
  -2   6  -9   -7.30    3.70
  -2   6  -9   -4.50    2.30
  -2   6  -9   -4.70    3.10
   2   6   9    4.50    4.20
  -3  -6  -9    8.90    5.80
   3  -6   9    2.70    2.00
  -3  -6  -9    0.20    2.30
  -3  -6  -9    1.10    2.00
  -3  -6  -9   -2.10    3.70
  -3   6  -9    1.40    2.40
  -3   6  -9    5.30    3.40
   4  -6   9    3.40    1.70
  -4  -6  -9   -0.90    4.10
   4  -6   9    6.30    3.30
  -4  -6  -9    8.20    3.00
  -4   6  -9    5.10    2.20
   4   6   9   10.10    3.30
   4  -7  -9   -0.50    1.90
  -4  -7   9    1.20    1.30
   4  -7  -9   -2.70    1.40
  -4   7   9    0.80    1.60
   4   7  -9    0.30    3.00
   3  -7  -9    7.90    2.60
   3  -7  -9    5.50    2.50
  -3  -7   9    4.90    2.50
  -3   7   9    9.90    2.80
   3   7  -9   10.10    3.90
  -2  -7   9    8.80    3.20
   2  -7  -9   15.00    5.10
   2  -7  -9   14.90    4.40
   2  -7  -9    6.40    3.70
  -2   7   9    9.80    3.30
   2   7  -9    9.00    3.70
  -1  -7   9   27.20    5.10
   1  -7  -9   23.70    5.70
   1  -7  -9   24.20    5.40
   1   7  -9   27.70    5.90
  -1   7   9   30.40    5.40
   1   7  -9   31.00    5.00
   0  -7   9    0.80    2.00
   0  -7  -9    3.30    2.60
   0  -7  -9    0.90    2.10
   0  -7  -9    4.90    2.20
   0   7   9    8.30    3.20
   0   7  -9    1.90    2.20
   0   7  -9    3.70    3.70
   1  -7   9  153.38   13.40
  -1  -7  -9  151.18   13.00
   1  -7   9  152.18   10.20
  -1  -7  -9  138.19   12.80
  -1  -7  -9  152.98   11.90
  -1  -7  -9  161.48   13.30
  -1   7  -9  133.69   12.50
  -1   7  -9  158.58   11.10
  -1   7  -9  153.88   11.00
   1   7   9  142.89   14.80
  -2  -7  -9   31.00    7.10
  -2  -7  -9   26.10    6.00
  -2  -7  -9   33.30    7.10
   2  -7   9   39.40    5.50
   2  -7   9   22.50    6.10
  -2  -7  -9   41.90    7.10
  -2   7  -9   25.30    5.30
  -2   7  -9   26.60    5.30
   2   7   9   20.90    6.50
  -3  -7  -9   20.40    6.00
  -3  -7  -9   27.00    5.90
  -3  -7  -9   16.40    4.80
  -3  -7  -9   14.20    5.40
   3  -7   9   30.80    4.40
   3  -7   9   25.20    6.90
  -3   7  -9   27.60    5.10
  -3   7  -9   30.20    5.20
  -4  -7  -9    4.30    4.00
   4  -7   9    2.60    2.30
  -4  -7  -9   -0.10    1.50
   4   7   9    0.50    1.30
  -4   7  -9    0.00    2.00
  -4   7  -9    1.70    1.80
  -4  -8   9    0.70    1.30
   4  -8  -9    3.30    1.90
  -4   8   9    4.40    1.80
  -4   8   9    2.40    2.10
  -4   8   9    2.10    2.50
   3  -8  -9   -0.20    2.20
  -3  -8   9    1.60    1.50
   3  -8  -9   -0.10    1.50
   3   8  -9   -1.80    1.70
  -3   8   9   -0.60    1.70
  -2  -8   9    6.60    2.60
   2  -8  -9    8.80    3.50
   2  -8  -9    9.10    3.40
  -2   8   9    8.10    2.90
   2   8  -9    4.50    2.40
   1  -8  -9   16.80    5.00
  -1  -8   9   18.20    4.30
   1  -8  -9   27.90    6.10
   1  -8  -9   20.90    5.20
   1   8  -9   19.90    4.80
  -1   8   9   20.50    4.80
   0  -8  -9  437.06   23.50
   0  -8  -9  418.96   21.90
   0  -8  -9  450.05   20.70
   0  -8  -9  436.86   23.20
   0  -8   9  438.96   19.80
   0   8   9  439.06   21.00
   0   8  -9  424.06   20.90
   0   8  -9  445.96   20.80
  -1  -8  -9   11.80    4.90
   1  -8   9   14.50    3.60
  -1  -8  -9   11.90    5.10
   1  -8   9    3.80    3.70
  -1  -8  -9   10.60    4.00
  -1   8  -9   24.60    5.30
  -1   8  -9   22.20    4.70
   1   8   9   18.60    6.90
   2  -8   9   36.80    7.50
   2  -8   9   36.00    4.90
  -2  -8  -9   40.70    7.20
  -2  -8  -9   40.20    8.30
  -2  -8  -9   31.80    5.90
  -2  -8  -9   40.90    8.60
  -2   8  -9   42.50    6.10
  -2   8  -9   39.40    5.90
  -3  -8  -9   -1.80    3.20
  -3  -8  -9    3.20    1.90
   3  -8   9    4.30    2.60
  -3   8  -9    3.50    2.00
  -3   8  -9    0.80    1.60
   3  -9  -9    1.10    2.00
   3  -9  -9    2.80    1.90
  -3  -9   9    1.90    1.30
  -3   9   9   -1.40    2.90
  -3   9   9    5.90    1.90
   3   9  -9    1.20    2.60
   2  -9  -9   10.90    3.40
   2  -9  -9   19.90    4.50
  -2  -9   9    9.50    3.10
  -2   9   9   13.30    3.40
   2   9  -9   11.70    3.40
   1  -9  -9    4.60    2.70
   1  -9  -9   -1.00    1.80
  -1  -9   9    0.80    1.60
   1   9  -9    1.00    2.00
  -1   9   9    1.60    2.10
   0  -9   9    6.10    2.60
   0  -9  -9    8.30    3.60
   0  -9  -9    5.90    3.30
   0   9   9    5.10    2.70
   0   9  -9   10.20    3.30
   0   9  -9   13.90    3.70
  -1  -9  -9   -0.10    3.40
   1  -9   9    1.70    2.00
  -1  -9  -9    4.20    2.20
  -1   9  -9    3.50    3.30
   1   9   9   -4.40    2.40
  -1   9  -9    4.20    2.50
  -2  -9  -9    8.40    3.20
   2  -9   9    6.40    2.10
  -2  -9  -9   12.00    3.90
  -2   9  -9   11.10    3.30
  -2   9  -9    2.30    2.30
  -3  -9  -9    3.90    2.00
  -3  -9  -9    4.90    3.00
   3   9   9    3.60    2.20
  -3   9  -9    2.80    1.90
  -2 -10   9   -0.40    1.40
   2 -10  -9    0.60    1.70
   2 -10  -9    4.10    2.50
   2  10  -9   -1.10    2.00
   1 -10  -9    1.80    2.30
  -1 -10   9    2.80    2.10
   1 -10  -9    2.80    2.20
  -1  10   9    5.90    2.00
   1  10  -9    4.10    1.90
   0 -10   9   35.70    4.80
   0 -10  -9   40.90    6.30
   0 -10  -9   35.70    5.80
   0  10  -9   43.30    5.80
   0  10   9   23.90    6.30
   0  10  -9   55.59    6.10
  -1 -10  -9    1.70    1.70
  -1 -10  -9   -3.50    2.30
   1  10   9   -5.20    3.30
  -1  10  -9   -2.60    1.80
  -1  10  -9   -1.90    1.60
  -2 -10  -9   -0.10    1.90
  -2 -10  -9    5.60    2.60
  -2  10  -9   -1.40    1.80
  -2  10  -9    0.80    1.70
   2  10   9    0.00    2.30
   1 -11  -9    3.00    2.30
   1 -11  -9    5.90    1.80
   1  11  -9    0.00    1.70
  -1  11   9   -0.90    2.00
   0 -11  -9    1.20    2.00
   0 -11  -9   -3.00    1.70
   0  11  -9    1.90    1.70
   0  11   9    0.90    2.80
  -1 -11  -9   28.90    4.50
  -1 -11  -9   26.50    5.20
  -1  11  -9   28.60    4.20
   5   0 -10    3.90    1.80
  -5   0  10   -0.80    2.40
  -5   0  10   -2.90    1.70
  -4   0  10    2.00    1.90
   4   0 -10    6.30    3.20
  -4   0  10    2.00    4.50
   4   0 -10   -0.30    2.60
  -4   0  10    3.30    2.70
   3   0 -10    6.80    2.50
   3   0 -10    0.50    1.70
  -3   0  10   -1.10    1.70
  -3   0  10    0.90    3.10
  -3   0  10   -1.50    1.60
   2   0 -10  519.55   19.60
  -2   0  10  532.75   20.70
   1   0 -10    2.20    1.10
  -1   0  10    0.40    1.20
   0   0 -10  716.23   22.00
   0   0  10  702.73   22.80
  -1   0 -10    1.80    1.00
   1   0  10   -0.50    1.10
  -2   0 -10 2290.27   62.99
  -2   0 -10 2131.79   64.19
  -2   0 -10 2199.98   60.49
  -2   0 -10 2137.19   59.89
  -3   0 -10    0.00    2.80
   3   0  10   -4.00    2.20
  -3   0 -10    5.00    2.80
  -3   0 -10   -2.90    2.00
   3   0  10   -3.60    2.30
  -4   0 -10   58.09    8.10
   4   0  10   70.39    8.40
  -4   0 -10   43.40    9.30
   4   0  10   56.69    9.10
  -4   0 -10   58.49    8.00
  -5   0 -10    0.30    2.00
  -5   0 -10    2.10    2.60
   5  -1 -10    1.70    2.20
  -5  -1  10    0.70    1.60
   5   1 -10    3.30    1.80
  -5   1  10    0.20    1.90
  -5   1  10    1.30    2.70
  -5   1  10   -0.60    1.60
   4  -1 -10   35.30    6.70
   4  -1 -10   27.30    5.80
  -4  -1  10   35.30    7.60
  -4  -1  10   37.10    6.40
  -4  -1  10   29.60    6.30
  -4  -1  10   40.20    6.90
  -4   1  10   30.20    6.30
  -4   1  10   26.80    6.90
  -4   1  10   32.40    6.20
   4   1 -10   38.00    6.50
   4   1 -10   32.40    6.40
  -3  -1  10   13.00    3.60
   3  -1 -10   14.30    3.80
   3  -1 -10   11.60    3.60
  -3  -1  10   18.40    4.20
  -3  -1  10   13.30    4.30
   3   1 -10   17.20    4.30
   3   1 -10    6.20    3.20
  -3   1  10   12.40    3.60
  -3   1  10   10.30    3.40
  -3   1  10   10.10    3.90
   2  -1 -10  231.08   12.10
  -2  -1  10  250.57   12.80
  -2   1  10  238.38   12.80
  -2   1  10  240.78   10.00
   2   1 -10  238.78   12.10
  -1  -1  10    9.60    2.40
  -1   1  10   12.60    3.10
   0  -1  10  531.05   18.20
   0  -1 -10  538.85   18.30
   0   1 -10  528.85   17.20
   0   1  10  546.85   18.90
  -1  -1 -10  694.43   24.10
   1  -1  10  724.53   23.40
   1   1  10  704.23   24.50
  -1   1 -10  687.13   24.30
  -1   1 -10  726.23   21.60
  -2  -1 -10 1618.74   50.69
  -2  -1 -10 1631.34   48.20
  -2  -1 -10 1524.85   46.60
  -2   1 -10 1669.83   50.69
  -2   1 -10 1589.04   44.60
  -2   1 -10 1560.34   45.70
  -2   1 -10 1523.45   46.50
  -3  -1 -10   18.70    4.90
  -3  -1 -10    9.90    4.00
  -3  -1 -10   16.10    4.80
  -3  -1 -10   16.60    4.80
   3  -1  10   22.10    5.70
   3  -1  10    9.70    3.90
   3   1  10    9.60    3.20
  -3   1 -10   23.00    5.60
  -3   1 -10   20.80    5.00
  -3   1 -10   21.90    5.30
  -3   1 -10   20.20    5.30
  -3   1 -10    0.80    3.90
   3   1  10   11.20    3.90
   4  -1  10    2.20    3.10
  -4  -1 -10    7.90    3.50
  -4  -1 -10   -1.00    2.50
   4  -1  10    6.40    3.70
  -4  -1 -10    9.30    4.50
   4   1  10   -2.30    4.00
  -4   1 -10    2.10    2.20
  -4   1 -10    6.40    2.70
   4   1  10    2.20    4.00
  -5  -1 -10   -1.70    2.40
  -5  -1 -10   -0.50    1.80
  -5   1 -10   -0.50    1.50
  -5   1 -10   -0.30    2.00
   5  -2 -10   -0.30    1.90
  -5  -2  10   -0.70    1.60
  -5   2  10    0.90    2.50
   5   2 -10    1.80    1.70
  -5   2  10   -1.70    1.50
  -4  -2  10    5.30    2.80
  -4  -2  10    4.90    4.30
   4  -2 -10    7.00    3.30
   4  -2 -10   10.00    3.60
  -4  -2  10   11.70    4.10
  -4   2  10   -1.30    3.70
   4   2 -10    2.90    2.60
  -4   2  10    8.30    3.40
  -4   2  10    5.10    3.30
   4   2 -10    3.70    3.00
  -3  -2  10   68.59    7.90
  -3  -2  10   61.59    7.40
   3  -2 -10   61.49    7.60
  -3  -2  10   52.09    8.50
  -3  -2  10   63.99    9.40
   3  -2 -10   61.89    7.40
   3   2 -10   56.69    7.10
  -3   2  10   64.79    7.20
  -3   2  10   62.69    7.60
  -3   2  10   59.19    7.30
  -3   2  10   55.69    7.40
  -2  -2  10  903.91   29.60
   2  -2 -10  867.91   29.70
   2   2 -10  861.31   28.80
  -2   2  10  894.41   30.30
  -2   2  10  859.91   27.60
  -1  -2  10   37.50    4.20
   1   2 -10   38.30    4.20
  -1   2  10   38.30    4.60
   0  -2  10  202.18    9.20
   0  -2 -10  193.68    9.90
   0   2  10  188.78    9.70
   0   2 -10  191.18    8.30
   0   2 -10  198.38    8.00
  -1  -2 -10  239.18   12.50
  -1   2 -10  230.28    9.70
  -1   2 -10  228.28    8.60
  -1   2 -10  256.27   12.20
   1   2  10  230.08   11.80
   2  -2  10  363.76   32.20
  -2  -2 -10  451.45   22.50
  -2  -2 -10  437.36   19.50
  -2  -2 -10  445.66   20.60
  -2   2 -10  439.46   17.10
  -2   2 -10  441.46   17.90
  -2   2 -10  440.06   20.70
  -2   2 -10  442.76   15.70
  -3  -2 -10   19.80    5.20
  -3  -2 -10   27.40    6.40
  -3  -2 -10   16.10    4.60
  -3  -2 -10   20.50    5.50
   3  -2  10   18.40    4.30
   3  -2  10   27.80    6.20
  -3   2 -10   24.00    5.40
  -3   2 -10   10.10    4.90
   3   2  10   24.50    5.20
  -3   2 -10   33.10    6.70
   3   2  10   14.60    5.40
  -3   2 -10   27.40    6.50
   4  -2  10    9.90    3.80
  -4  -2 -10    9.40    3.50
   4  -2  10   10.80    5.60
  -4  -2 -10    0.80    4.70
  -4  -2 -10    4.80    3.60
   4   2  10   18.90    6.10
  -4   2 -10   10.20    3.70
   4   2  10    7.10    3.70
  -4   2 -10    9.50    3.40
  -5  -2 -10    5.40    2.30
  -5  -2 -10    8.20    3.80
   5  -2  10    1.10    3.70
  -5   2 -10    5.90    2.50
   5   2  10    0.60    6.90
  -5   2 -10    7.60    2.70
   5  -3 -10    4.80    1.80
  -5  -3  10    1.90    1.50
   5   3 -10    8.50    2.80
  -5   3  10    4.20    1.90
  -5   3  10    4.60    2.50
   4  -3 -10    5.30    3.00
  -4  -3  10    8.10    3.20
   4  -3 -10    5.70    3.10
   4   3 -10    0.10    2.30
  -4   3  10    0.40    2.60
   4   3 -10    4.60    3.20
  -4   3  10    5.10    2.80
   3  -3 -10    9.30    3.40
   3  -3 -10    9.30    3.10
  -3  -3  10    8.20    3.00
   3   3 -10    5.00    3.50
  -3   3  10    8.30    3.20
  -3   3  10    8.20    3.60
  -3   3  10    4.80    2.50
  -3   3  10    6.00    3.80
   2  -3 -10  367.16   24.30
   2  -3 -10  357.96   16.70
  -2  -3  10  358.66   16.00
  -2   3  10  368.66   16.30
  -2   3  10  359.16   17.40
   2   3 -10  353.06   16.10
  -2   3  10  315.57   15.90
  -1  -3  10  132.89    7.80
   1  -3 -10  133.19    8.60
   1  -3 -10  139.09    8.90
  -1   3  10  137.39    8.60
  -1   3  10  142.89    8.80
   1   3 -10  131.89    8.00
   0  -3 -10  234.48   11.50
   0  -3  10  222.48    9.40
   0   3  10  223.68   10.80
   0   3 -10  227.88    7.80
   0   3 -10  220.98    7.90
   0   3 -10  218.48    9.30
  -1  -3 -10   23.50    3.80
  -1  -3 -10   24.30    4.10
   1   3  10   20.80    3.80
  -1   3 -10   24.60    3.90
  -2  -3 -10  373.66   21.30
   2  -3  10  386.16   26.40
   2  -3  10  384.96   20.50
  -2  -3 -10  357.46   19.50
  -2  -3 -10  358.46   18.10
  -2   3 -10  374.96   19.10
  -2   3 -10  367.56   16.40
  -3  -3 -10   94.79   12.10
   3  -3  10   94.99   10.30
  -3  -3 -10  120.49   11.20
  -3  -3 -10  107.99   11.10
   3  -3  10  112.49   11.70
  -3   3 -10   95.79   11.70
  -3   3 -10  111.69   10.20
   3   3  10   99.29   10.60
   3   3  10  102.39   11.30
  -3   3 -10  109.19   10.10
  -4  -3 -10    7.10    3.50
  -4  -3 -10    6.40    4.10
  -4  -3 -10    5.80    3.20
   4  -3  10    7.20    3.50
  -4   3 -10    0.00    2.50
  -4   3 -10    3.20    3.20
   4   3  10    1.60    3.40
   5  -3  10   -1.70    3.00
  -5  -3 -10    1.60    5.70
  -5  -3 -10    0.80    1.80
  -5   3 -10    2.20    2.10
   5   3  10    7.60    3.30
   5  -4 -10   -0.30    2.50
  -5  -4  10    3.50    1.40
   5  -4 -10    0.40    1.80
  -5   4  10    4.70    2.70
   5   4 -10    1.10    1.70
  -5   4  10    2.10    1.40
   4  -4 -10    7.90    3.30
  -4  -4  10    5.90    2.60
  -4   4  10    9.70    3.60
  -4   4  10    8.80    3.10
   4   4 -10    5.60    3.00
  -3  -4  10   51.19    7.20
   3  -4 -10   41.90    6.40
   3  -4 -10   45.50    6.60
  -3  -4  10   32.00    6.60
  -3   4  10   43.80    6.70
   3   4 -10   42.10    7.20
  -3   4  10   47.80    7.30
  -3   4  10   40.80    6.50
  -3   4  10   48.60    8.50
   2  -4 -10  109.89   10.00
   2  -4 -10  125.89    9.70
  -2  -4  10  126.59    9.60
  -2  -4  10  127.79    8.50
   2  -4 -10  115.19    9.80
  -2   4  10  126.49    9.50
  -2   4  10  130.69    9.90
  -2   4  10  124.69   10.00
   2   4 -10  116.09    9.30
  -2   4  10  131.89    9.70
   1  -4 -10   34.30    4.80
   1  -4 -10   31.80    4.90
  -1  -4  10   32.10    3.70
  -1   4  10   34.20    4.80
   1   4 -10   32.90    4.50
  -1   4  10   36.30    4.50
   1   4 -10   23.30    5.30
   0  -4 -10    6.60    2.50
   0  -4  10    8.10    1.80
   0  -4 -10    2.50    2.10
   0   4 -10    6.40    1.90
   0   4  10    6.50    1.90
  -1  -4 -10  664.93   25.40
  -1  -4 -10  672.83   26.20
  -1   4 -10  692.73   25.40
  -2  -4 -10    7.40    4.20
  -2  -4 -10    6.80    3.40
  -2  -4 -10   15.20    4.50
   2  -4  10    4.70    2.80
   2  -4  10    7.60    2.90
   2   4  10    5.70    2.90
  -2   4 -10   10.60    3.30
  -2   4 -10   14.30    4.10
  -3  -4 -10   -0.40    3.80
  -3  -4 -10    2.70    2.20
   3  -4  10   -3.90    4.60
   3  -4  10    6.80    3.10
  -3  -4 -10    2.80    3.00
  -3   4 -10    8.50    3.20
  -3   4 -10    7.70    3.50
   3   4  10    3.50    5.10
  -4  -4 -10    9.30    4.20
  -4  -4 -10    6.80    3.30
   4  -4  10    7.90    3.70
   4   4  10    5.50    3.00
  -4   4 -10    7.30    3.70
  -4   4 -10    5.20    3.00
  -5  -4 -10    3.30    1.80
   5  -4  10    6.60    2.90
  -5   4 -10    5.40    2.20
  -5   4 -10    5.70    2.30
   5   4  10    7.90    2.90
  -5  -5  10    4.30    1.70
   5  -5 -10    1.90    2.00
   5  -5 -10   -0.70    1.90
  -5   5  10    1.90    1.40
   5   5 -10    4.30    2.10
   4  -5 -10   -0.20    2.40
   4  -5 -10    0.20    2.50
  -4  -5  10    0.40    1.90
  -4   5  10   -1.10    1.80
   4   5 -10    2.30    3.00
  -4   5  10   -1.70    2.10
  -3  -5  10    4.20    2.50
   3  -5 -10   -0.10    2.00
   3  -5 -10    7.50    3.20
  -3   5  10    5.30    3.20
  -3   5  10    3.00    2.40
  -3   5  10   -5.90    3.80
   3   5 -10    3.00    3.10
   2  -5 -10   87.59   11.70
  -2  -5  10   98.09    9.00
   2  -5 -10  100.69    9.90
   2  -5 -10  108.99    9.30
  -2   5  10  108.89    9.20
   2   5 -10   98.89    9.20
  -2   5  10  106.99    9.90
  -2   5  10   98.99    8.80
  -2   5  10  107.79    9.60
   1  -5 -10  125.69    9.30
   1  -5 -10  119.59    9.30
  -1  -5  10  115.39    8.80
   1  -5 -10  110.79    9.30
   1   5 -10  122.29    8.80
  -1   5  10  115.09    8.60
  -1   5  10  114.09    9.80
  -1   5  10  113.79    7.90
   0  -5  10   69.49    9.00
   0  -5 -10   60.59    6.60
   0  -5 -10   61.09    7.60
   0  -5 -10   68.89    7.00
   0   5 -10   67.59    6.20
   0   5 -10   70.09    5.50
   0   5  10   74.39    6.00
   1  -5  10   15.40    4.00
  -1  -5 -10    1.70    2.80
  -1  -5 -10    7.90    2.60
  -1  -5 -10    8.40    3.40
   1  -5  10    7.80    4.50
  -1   5 -10   17.10    3.90
  -1   5 -10   11.40    3.00
  -2  -5 -10  222.08   17.00
  -2  -5 -10  214.38   16.50
   2  -5  10  224.58   16.30
   2  -5  10  213.48   15.30
  -2  -5 -10  218.08   19.00
   2  -5  10  215.98   12.00
   2   5  10  234.38   15.40
  -2   5 -10  215.68   14.20
  -2   5 -10  213.38   15.40
  -2   5 -10  198.38   12.80
  -3  -5 -10  104.59   14.40
  -3  -5 -10  119.09   11.40
   3  -5  10  125.19   13.10
  -3  -5 -10  108.89   13.30
  -3  -5 -10   86.19   11.20
   3  -5  10  104.49    9.00
  -3   5 -10  101.89    9.40
  -3   5 -10  107.59    9.80
   4  -5  10   15.70    3.00
  -4  -5 -10   17.10    4.60
  -4  -5 -10   20.30    5.60
   4  -5  10   11.10    4.20
  -4  -5 -10    4.70    5.20
  -4   5 -10   22.60    4.70
   4   5  10   16.90    4.80
  -4   5 -10   16.70    4.40
   4  -6 -10   -2.10    1.80
  -4  -6  10    0.70    1.60
   4  -6 -10   -3.60    1.90
  -4   6  10    0.50    1.70
   4   6 -10    3.70    2.60
   3  -6 -10   13.40    4.70
   3  -6 -10   24.40    5.60
   3  -6 -10    9.50    4.60
  -3  -6  10   19.70    4.90
  -3   6  10   12.20    3.70
   3   6 -10   27.60    6.10
  -2  -6  10    5.60    2.80
   2  -6 -10    9.00    3.50
   2  -6 -10    9.20    3.60
   2  -6 -10   12.30    3.70
   2   6 -10    9.10    3.70
  -2   6  10   10.00    3.50
  -2   6  10    4.40    4.50
   1  -6 -10   32.30    6.80
  -1  -6  10   37.50    5.30
   1  -6 -10   32.10    5.60
   1  -6 -10   52.19    6.90
   1  -6 -10   42.10    7.50
  -1   6  10   37.60    5.20
   1   6 -10   36.70    5.70
  -1   6  10   39.90    5.50
   1   6 -10   29.80    6.70
   0  -6  10    5.10    2.70
   0  -6 -10   -2.00    2.90
   0  -6 -10    1.20    2.70
   0  -6 -10    3.60    2.20
   0   6 -10    7.00    3.10
   0   6 -10    8.50    2.60
  -1  -6 -10  258.07   16.70
   1  -6  10  244.28   16.70
   1  -6  10  261.17   17.60
  -1  -6 -10  241.48   17.40
  -1  -6 -10  254.77   17.10
   1  -6  10  248.28   12.30
  -1  -6 -10  255.07   15.30
   1   6  10  228.28   19.20
  -1   6 -10  239.28   15.20
  -1   6 -10  248.38   13.90
  -2  -6 -10   35.50    6.20
   2  -6  10   48.60    5.80
   2  -6  10   42.30    7.80
  -2  -6 -10   34.70    7.80
   2  -6  10   42.40    8.60
  -2  -6 -10   47.80   10.00
  -2  -6 -10   37.50    7.40
  -2   6 -10   54.59    7.70
  -2   6 -10   48.70    6.70
   2   6  10   41.80    8.50
  -3  -6 -10   -5.50    4.80
  -3  -6 -10   -0.80    1.80
   3  -6  10   -0.20    2.00
   3  -6  10    0.40    2.50
  -3  -6 -10    4.70    3.60
  -3  -6 -10    7.60    3.70
  -3   6 -10   -1.70    2.70
  -3   6 -10    1.00    2.30
  -4  -6 -10   -2.60    2.00
   4  -6  10   -0.70    2.00
  -4  -6 -10    0.10    5.70
  -4  -6 -10  -10.20    5.40
  -4   6 -10   -3.00    2.20
  -4   6 -10   -1.40    1.80
   4   6  10    1.30    2.10
   4  -7 -10    3.70    2.50
  -4  -7  10    1.90    1.90
   4  -7 -10    1.70    1.70
  -4   7  10   -0.90    1.60
   4   7 -10    0.60    2.90
   3  -7 -10    2.30    2.50
  -3  -7  10   -2.20    1.40
   3  -7 -10   -1.80    2.00
   3   7 -10   -0.50    2.30
  -3   7  10    0.50    1.90
  -2  -7  10   28.30    5.70
   2  -7 -10   29.70    6.70
   2  -7 -10   29.90    6.10
   2  -7 -10   30.40    6.20
  -2   7  10   33.20    5.50
   2   7 -10   25.10    5.40
  -1  -7  10  108.19    9.20
   1  -7 -10  115.49   10.90
   1  -7 -10  103.89    9.70
   1  -7 -10  110.39   11.10
   1   7 -10  115.69    9.30
  -1   7  10  115.09    9.50
  -1   7  10  106.89   10.00
   1   7 -10  101.59    9.70
   0  -7 -10   70.79    7.90
   0  -7 -10   59.19    8.20
   0  -7  10   59.99    6.60
   0  -7 -10   57.29    8.90
   0  -7 -10   64.49    8.10
   0   7  10   69.19    7.80
   0   7 -10   63.79    7.00
   0   7 -10   58.59    8.10
  -1  -7 -10   27.40    5.40
   1  -7  10   34.90    7.60
   1  -7  10   31.70    5.00
  -1  -7 -10   35.20    6.90
  -1  -7 -10   27.20    6.20
  -1  -7 -10   23.50    6.40
  -1   7 -10   19.40    5.90
  -1   7 -10   37.10    5.70
   1   7  10   35.80    8.10
  -1   7 -10   29.30    5.40
   2  -7  10   -3.30    1.60
  -2  -7 -10    7.50    4.80
  -2  -7 -10   -2.10    2.30
  -2  -7 -10    2.40    3.00
   2  -7  10    4.90    3.10
   2   7  10   -2.00    4.30
  -2   7 -10   -1.70    2.80
  -2   7 -10   -0.10    2.10
   3  -7  10    7.60    2.20
  -3  -7 -10   14.70    4.70
  -3  -7 -10    5.40    3.30
  -3  -7 -10    7.70    4.50
   3  -7  10    9.70    3.90
  -3  -7 -10   14.00    4.50
  -3   7 -10    2.90    2.60
  -3   7 -10   10.50    3.10
  -4  -7 -10    7.50    6.20
  -4  -7 -10    5.20    2.20
   4  -7  10    8.90    2.90
   4   7  10    4.30    2.10
  -4   7 -10    4.70    2.40
  -4   7 -10    5.30    2.10
  -3  -8  10    9.20    2.60
   3  -8 -10   12.00    3.40
   3  -8 -10    3.10    2.30
  -3   8  10    4.10    2.90
  -3   8  10    8.60    2.60
   3   8 -10   13.40    3.60
   2  -8 -10    5.80    3.10
  -2  -8  10    6.10    2.90
   2  -8 -10   11.40    4.10
  -2   8  10   13.50    3.90
   2   8 -10    8.50    3.80
  -2   8  10    6.50    3.00
   1  -8 -10   33.10    6.60
   1  -8 -10   25.70    5.80
   1  -8 -10   18.60    5.40
  -1  -8  10   29.30    5.60
   1   8 -10   21.60    5.10
  -1   8  10   25.30    5.50
   0  -8  10   12.10    3.40
   0  -8 -10   12.20    3.80
   0  -8 -10    8.10    3.80
   0  -8 -10    4.50    4.50
   0  -8 -10    6.70    3.60
   0   8  10    1.50    2.40
   0   8 -10    9.00    3.40
  -1  -8 -10    4.70    2.80
  -1  -8 -10    6.40    3.60
  -1  -8 -10    8.20    5.00
  -1  -8 -10    7.60    4.10
   1  -8  10   10.30    3.00
   1  -8  10   11.30    4.50
  -1   8 -10   13.10    4.00
   1   8  10    8.00    6.10
  -1   8 -10   15.80    3.90
  -2  -8 -10    4.00    2.60
  -2  -8 -10    7.50    4.50
   2  -8  10    9.20    2.50
  -2  -8 -10    0.40    3.60
   2  -8  10    8.10    3.80
  -2  -8 -10    6.90    5.70
  -2   8 -10    6.70    3.40
  -2   8 -10    3.10    2.00
  -3  -8 -10   -1.60    3.30
   3  -8  10   -1.10    1.90
  -3  -8 -10    3.80    2.40
  -3   8 -10    3.40    2.10
  -3   8 -10   -0.50    2.00
   3   8  10    2.50    2.20
   3  -9 -10    0.80    2.10
   3  -9 -10    0.90    1.70
  -3  -9  10    2.20    1.50
  -3   9  10    5.50    3.70
  -3   9  10   -0.80    1.60
   2  -9 -10   -1.00    2.10
  -2  -9  10   -2.30    1.30
   2  -9 -10    0.30    1.40
  -2   9  10   -1.10    1.30
   1  -9 -10   11.00    4.60
  -1  -9  10   24.50    4.70
   1  -9 -10   27.30    5.70
   1   9 -10   20.20    4.70
  -1   9  10   19.90    4.40
   0  -9  10   68.19    6.80
   0  -9 -10   75.09    8.90
   0  -9 -10   71.69    9.30
   0   9  10   64.09    7.30
   0   9 -10   63.19    7.30
   0   9 -10   68.19    7.60
  -1  -9 -10   30.10    6.50
   1  -9  10   38.60    4.60
  -1  -9 -10   42.00    6.60
   1   9  10   22.40    5.20
  -1   9 -10   24.20    5.40
  -1   9 -10   40.40    5.90
  -2  -9 -10    0.40    2.80
  -2  -9 -10    0.40    1.70
  -2   9 -10   -2.30    1.60
  -2   9 -10    6.90    3.00
  -3  -9 -10    6.50    2.80
  -3  -9 -10    2.90    3.50
  -3   9 -10    1.70    1.70
  -3   9 -10   -1.10    1.60
   3   9  10   10.30    3.00
   2 -10 -10   -0.80    1.80
   2 -10 -10   -1.50    1.90
  -2 -10  10   -1.10    1.20
   2  10 -10   -2.40    1.70
  -2  10  10   -2.00    1.40
   1 -10 -10    3.70    2.70
  -1 -10  10   -2.10    1.50
   1 -10 -10   -2.20    1.70
  -1  10  10    1.20    1.60
   1  10 -10    0.40    1.70
   0 -10 -10   22.60    4.80
   0 -10 -10   17.40    4.70
   0  10  10   21.50    4.90
   0  10 -10   18.70    4.40
  -1 -10 -10    4.50    2.70
  -1 -10 -10    5.50    3.50
   1  10  10   -0.70    3.50
   1  10  10   -1.50    4.40
  -1  10 -10    7.20    2.40
  -1  10 -10    3.50    2.40
  -2 -10 -10    9.40    2.80
  -2 -10 -10    6.50    2.50
  -2  10 -10    5.00    1.90
  -2  10 -10    4.20    2.50
   2  10  10    4.00    2.80
   1 -11 -10    3.10    2.10
   1 -11 -10    1.30    1.70
   1  11 -10    1.50    2.30
  -1  11  10    0.30    1.90
   0 -11 -10   -1.30    1.80
   0 -11 -10    0.30    2.00
   0  11  10    2.70    2.40
   0  11 -10    1.80    1.70
  -1 -11 -10    4.10    2.30
  -1 -11 -10    3.80    2.50
  -1  11 -10    2.10    2.00
   5   0 -11    0.50    1.60
  -5   0  11    2.10    1.60
  -5   0  11    0.50    2.80
   4   0 -11    2.70    3.10
  -4   0  11   -0.80    3.40
   4   0 -11    0.10    2.00
  -4   0  11   -0.10    1.70
   3   0 -11   67.89    7.60
  -3   0  11   56.69    7.80
  -3   0  11   67.99    8.10
   3   0 -11   61.09    7.70
  -3   0  11   69.69    7.70
   2   0 -11    2.40    1.60
  -2   0  11    1.40    1.80
  -1   0  11 1227.38   35.90
   1   0 -11 1139.69   31.70
   0   0  11   -0.80    1.10
   0   0 -11   -0.40    0.90
  -1   0 -11   34.40    4.20
   1   0  11   34.00    4.50
  -2   0 -11    1.20    2.20
  -2   0 -11    2.10    1.70
  -2   0 -11   -3.20    2.00
  -3   0 -11  173.48   13.20
   3   0  11  182.18   14.40
   3   0  11  171.98   13.50
   3   0  11  163.28   17.20
  -3   0 -11  194.88   15.70
  -3   0 -11  181.08   12.90
  -3   0 -11  182.88   13.70
  -4   0 -11   -6.20    5.30
  -4   0 -11   -0.10    2.40
  -4   0 -11    0.90    2.20
   4   0  11    1.10    2.70
  -5   0 -11   11.00    3.00
  -5   0 -11    2.70    2.40
  -5  -1  11    3.00    1.60
   5  -1 -11    3.20    2.50
  -5   1  11    3.60    1.90
   5   1 -11    2.90    2.00
  -5   1  11    3.30    1.90
  -4  -1  11    2.80    2.40
   4  -1 -11    0.20    2.30
   4  -1 -11   -1.90    2.30
  -4  -1  11   -2.80    2.70
  -4  -1  11    6.90    4.90
  -4  -1  11   -2.00    3.40
  -4   1  11    1.20    2.00
  -4   1  11   -1.80    2.70
  -4   1  11    3.00    3.80
   4   1 -11    0.60    2.50
   4   1 -11   -1.50    2.30
  -3  -1  11  364.16   19.10
  -3  -1  11  368.26   18.80
   3  -1 -11  362.16   19.30
   3  -1 -11  366.06   18.50
  -3  -1  11  373.16   18.70
   3   1 -11  356.66   18.30
  -3   1  11  376.26   19.70
  -3   1  11  352.96   16.90
  -3   1  11  337.87   18.10
   3   1 -11  347.37   19.30
   2  -1 -11  298.17   14.30
  -2  -1  11  293.67   14.70
   2   1 -11  287.37   13.90
  -2   1  11  294.27   14.90
  -1  -1  11   11.30    2.70
  -1   1  11   12.00    3.10
   0  -1  11  129.59    7.80
   0  -1 -11  129.49    7.80
   0   1  11  142.49    8.50
   0   1 -11  129.29    7.10
   1  -1  11 4174.48  102.59
  -1  -1 -11 3835.92  103.09
  -1   1 -11 4198.18  100.19
   1   1  11 3999.90  103.99
  -1   1 -11 4134.69  103.99
  -2  -1 -11   76.59    7.40
  -2  -1 -11   82.99    8.10
  -2  -1 -11   89.09    9.00
   2  -1  11   69.99   11.60
  -2   1 -11   82.39    6.70
  -2   1 -11   79.09    7.20
  -2   1 -11   90.09    8.80
  -3  -1 -11   17.30    5.90
  -3  -1 -11   19.30    5.40
   3  -1  11   14.70    4.30
   3  -1  11   15.50    3.90
  -3  -1 -11   15.60    4.80
  -3  -1 -11   17.20    5.60
   3   1  11   18.30    4.80
   3   1  11   31.40    5.90
  -3   1 -11   21.40    6.30
  -3   1 -11   17.00    4.70
  -3   1 -11   22.40    5.30
  -4  -1 -11    1.70    3.00
   4  -1  11    4.30    4.00
  -4  -1 -11    7.00    4.30
   4  -1  11    1.90    2.50
  -4  -1 -11    1.60    2.10
  -4   1 -11   -1.20    2.10
   4   1  11   -2.30    2.40
  -4   1 -11   -2.70    1.90
  -5  -1 -11    1.20    2.70
  -5  -1 -11    0.40    1.90
  -5   1 -11    4.50    2.30
  -5   1 -11   -2.40    2.00
  -5  -2  11   -0.70    0.90
   5  -2 -11   -1.80    1.60
  -5   2  11   -1.80    1.70
   5   2 -11   -1.30    1.50
  -5   2  11    0.70    1.20
   4  -2 -11   -1.30    2.00
  -4  -2  11    2.30    2.20
   4  -2 -11    2.50    2.60
  -4  -2  11    0.70    4.50
  -4   2  11   -6.10    4.10
  -4   2  11    0.30    2.10
   4   2 -11    0.80    2.20
   4   2 -11    1.80    2.40
  -4   2  11    8.30    3.50
  -3  -2  11   -1.00    2.20
   3  -2 -11    2.60    1.80
   3  -2 -11    5.20    2.70
  -3  -2  11   -1.00    3.90
  -3  -2  11   -2.70    2.10
   3   2 -11   -0.60    1.90
  -3   2  11   -0.10    2.50
  -3   2  11    3.00    2.10
  -3   2  11    5.40    4.20
  -3   2  11    2.60    2.70
  -2  -2  11  463.35   19.20
   2  -2 -11  455.65   19.30
   2   2 -11  436.46   18.10
  -2   2  11  461.45   19.60
  -2   2  11  445.96   17.10
  -1  -2  11 1591.04   44.20
  -1   2  11 1564.44   45.20
   1   2 -11 1534.25   44.10
   0  -2 -11   12.60    2.80
   0  -2  11   12.10    2.60
   0   2 -11   16.90    2.50
   0   2 -11   15.40    2.20
   0   2  11   13.10    2.90
  -1  -2 -11    3.20    2.00
   1   2  11    0.20    1.40
  -1   2 -11    4.10    1.20
  -1   2 -11    1.90    1.70
  -1   2 -11    0.00    1.20
   2  -2  11  381.76   24.10
  -2  -2 -11  381.96   18.40
   2  -2  11  374.86   21.50
   2  -2  11  377.16   20.30
   2  -2  11  357.96   19.50
  -2  -2 -11  365.46   20.80
  -2  -2 -11  375.96   19.20
   2   2  11  365.76   22.00
  -2   2 -11  359.76   15.30
  -2   2 -11  401.96   19.70
  -2   2 -11  367.26   16.10
  -2   2 -11  394.76   14.50
   2   2  11  389.96   19.80
  -3  -2 -11  267.37   17.50
   3  -2  11  290.77   17.40
  -3  -2 -11  314.07   21.00
   3  -2  11  289.67   19.10
  -3  -2 -11  290.97   20.40
  -3  -2 -11  266.07   17.50
  -3   2 -11  293.97   19.70
   3   2  11  274.17   17.90
  -3   2 -11  277.27   16.70
  -3   2 -11  277.47   16.50
   3   2  11  283.27   18.60
   4  -2  11    6.90    5.00
  -4  -2 -11   16.40    4.60
   4  -2  11   13.10    4.30
  -4  -2 -11    6.30    3.60
  -4  -2 -11   16.50    5.70
   4   2  11   16.10    5.50
  -4   2 -11   26.50    5.70
   4   2  11    9.50    3.70
  -4   2 -11   13.90    4.00
  -5  -2 -11    5.40    2.00
  -5  -2 -11    3.10    3.30
   5  -2  11   -1.80    3.60
   5   2  11    1.40    4.90
  -5   2 -11    2.00    2.20
  -5   2 -11    4.80    2.20
  -5  -3  11   -0.40    1.20
   5  -3 -11   -2.50    1.50
  -5   3  11    0.60    1.60
   5   3 -11    1.90    1.80
  -5   3  11   -1.20    1.20
  -4  -3  11   -1.70    1.80
   4  -3 -11    2.00    2.40
   4  -3 -11    6.80    3.40
   4   3 -11    0.70    2.60
  -4   3  11    0.90    2.10
  -4   3  11    3.40    2.60
   4   3 -11    1.60    2.10
   3  -3 -11   63.39    7.80
  -3  -3  11   60.59    7.60
   3  -3 -11   66.99    7.70
  -3  -3  11   55.49    7.20
  -3   3  11   53.89    7.00
  -3   3  11   53.69    7.30
   3   3 -11   54.19    7.40
  -3   3  11   49.10    8.80
  -3   3  11   67.39    7.70
  -2  -3  11  320.27   15.20
   2  -3 -11  294.57   16.80
   2  -3 -11  344.57   16.40
  -2  -3  11  327.07   15.70
   2   3 -11  339.07   15.60
  -2   3  11  307.77   16.20
  -2   3  11  325.57   15.30
  -2   3  11  319.57   16.30
   1  -3 -11   46.20    5.30
   1  -3 -11   49.60    5.30
  -1  -3  11   51.09    4.90
  -1   3  11   46.50    5.20
   1   3 -11   39.90    5.20
   0  -3 -11 1247.68   37.40
   0  -3 -11 1202.68   36.40
   0  -3  11 1233.98   34.20
   0   3  11 1233.68   36.40
   0   3 -11 1268.47   31.80
   0   3 -11 1225.18   33.60
   0   3 -11 1144.89   31.60
  -1  -3 -11  416.56   18.70
  -1  -3 -11  387.66   17.10
   1   3  11  426.16   17.70
  -1   3 -11  412.26   17.60
  -2  -3 -11   50.49    8.10
  -2  -3 -11   51.99    7.60
   2  -3  11   58.09    8.00
   2  -3  11   50.09   10.70
   2  -3  11   57.69    7.30
  -2  -3 -11   52.89    6.80
  -2  -3 -11   58.19    8.10
   2   3  11   45.80    7.80
  -2   3 -11   49.60    7.50
  -2   3 -11   55.19    6.40
   3  -3  11   41.50    8.10
   3  -3  11   45.50    8.10
  -3  -3 -11   47.20    7.60
  -3  -3 -11   54.19    8.40
  -3  -3 -11   40.20    7.50
   3   3  11   47.80    7.60
  -3   3 -11   51.49    9.20
   3   3  11   47.30    8.40
  -3   3 -11   37.50    6.80
  -4  -3 -11   23.00    5.70
   4  -3  11   18.10    5.30
  -4  -3 -11    9.70    6.20
  -4  -3 -11   19.50    5.30
  -4   3 -11   19.30    4.70
  -4   3 -11   24.80    5.60
   4   3  11   20.30    5.50
   5  -3  11    1.50    2.80
  -5  -3 -11    0.60    1.80
  -5   3 -11    3.90    2.60
  -5   3 -11   -1.40    1.80
   5   3  11   -0.50    3.60
   5  -4 -11    3.50    2.60
  -5  -4  11    0.50    1.40
   5  -4 -11    0.80    1.70
  -5   4  11    2.80    1.60
   5   4 -11   -1.50    1.70
   4  -4 -11    0.00    1.90
  -4  -4  11    2.10    2.00
   4  -4 -11   -1.20    4.20
   4   4 -11   -1.80    2.00
  -4   4  11    2.90    2.00
  -4   4  11   -1.90    2.00
  -3  -4  11   14.60    3.80
   3  -4 -11   13.70    3.90
  -3  -4  11   28.90    6.00
   3  -4 -11   23.10    5.30
  -3   4  11   14.90    3.90
  -3   4  11   16.90    4.90
   3   4 -11   26.30    6.00
  -3   4  11   19.80    5.00
  -3   4  11    9.20    5.90
   2  -4 -11   45.10    6.90
  -2  -4  11   43.00    5.50
  -2  -4  11   45.20    6.10
   2  -4 -11   42.10    6.00
   2  -4 -11   41.10    6.50
  -2   4  11   42.60    5.80
   2   4 -11   46.00    6.00
  -2   4  11   43.00    6.10
  -2   4  11   39.10    5.80
  -2   4  11   47.10    6.60
  -1  -4  11    4.70    1.90
   1  -4 -11    4.60    2.30
  -1   4  11    5.40    2.30
   1   4 -11    3.80    2.40
   1   4 -11    5.60    3.20
   0  -4 -11  227.78   12.60
   0  -4 -11  206.88   11.70
   0  -4  11  219.78    9.20
   0   4  11  225.78   11.40
   0   4 -11  227.78   10.00
  -1  -4 -11   61.89    6.50
  -1  -4 -11   56.49    6.90
   1  -4  11   38.20    9.10
  -1   4 -11   55.39    6.00
  -2  -4 -11  149.09   13.70
  -2  -4 -11  147.19   13.50
  -2  -4 -11  160.78   12.00
   2  -4  11  150.48    9.60
   2  -4  11  156.08   13.10
   2  -4  11  140.09   11.90
  -2   4 -11  166.78   12.90
   2   4  11  152.08   12.90
  -2   4 -11  137.59   10.30
  -3  -4 -11    6.00    4.10
   3  -4  11   -4.00    3.60
  -3  -4 -11   -0.10    3.40
   3  -4  11    9.50    4.10
  -3  -4 -11   -5.50    3.20
  -3   4 -11    9.00    3.70
  -3   4 -11    3.10    2.80
   3   4  11    1.90    3.60
   3   4  11    6.30    3.00
  -4  -4 -11    5.80    4.90
   4  -4  11   -1.50    2.00
  -4  -4 -11    2.40    3.10
  -4  -4 -11    2.80    2.90
   4  -4  11    1.50    2.60
  -4   4 -11    5.50    2.80
  -4   4 -11   -0.10    1.50
   4   4  11    4.80    3.00
   4  -5 -11    4.70    3.70
   4  -5 -11   -1.40    3.50
  -4  -5  11    7.40    2.90
  -4   5  11    1.60    4.60
  -4   5  11    9.70    2.60
  -4   5  11    4.00    2.50
   4   5 -11   13.30    3.90
   3  -5 -11   15.10    6.10
   3  -5 -11   28.40    5.70
   3  -5 -11   21.20    5.10
  -3  -5  11   21.60    5.00
  -3   5  11   18.50    4.90
  -3   5  11   18.00    4.50
  -3   5  11   27.20    6.30
   3   5 -11   19.80    5.70
   2  -5 -11  126.19   11.50
   2  -5 -11  102.59   12.30
  -2  -5  11  125.69   10.20
   2  -5 -11  126.79   10.20
   2   5 -11  135.69   10.60
  -2   5  11  124.69    9.90
  -2   5  11  128.99    9.80
  -2   5  11  119.69   11.10
  -1  -5  11    7.60    2.90
   1  -5 -11   12.60    3.60
   1  -5 -11    8.70    3.50
  -1   5  11   14.40    3.40
  -1   5  11   14.20    3.70
   1   5 -11   15.30    3.90
   0  -5 -11  778.62   30.50
   0  -5 -11  830.22   29.70
   0  -5  11  824.62   34.30
   0  -5 -11  836.02   30.20
   0   5 -11  812.82   25.30
   0   5  11  801.22   27.20
   0   5 -11  778.32   26.50
  -1  -5 -11   -0.40    1.50
  -1  -5 -11   -1.40    3.50
  -1  -5 -11    1.30    2.20
  -1  -5 -11   -2.50    1.40
   1  -5  11   -4.50    3.00
   1  -5  11   -4.60    2.20
   1   5  11   -0.70    4.50
  -1   5 -11    1.70    2.90
  -1   5 -11   -0.30    2.20
   2  -5  11   45.50    7.60
   2  -5  11   29.60    6.30
   2  -5  11   31.00    5.30
  -2  -5 -11   44.20    7.30
  -2  -5 -11   45.40    7.20
  -2  -5 -11   39.40    6.60
   2   5  11   28.80    6.50
  -2   5 -11   37.00    8.00
  -2   5 -11   49.10    6.50
  -3  -5 -11   20.10    6.50
  -3  -5 -11   24.60    7.70
   3  -5  11   22.00    6.30
   3  -5  11   18.80    3.80
  -3  -5 -11   19.20    5.30
   3  -5  11   34.90    7.40
  -3   5 -11   29.70    5.70
   3   5  11   48.30   10.50
  -3   5 -11   31.80    6.10
  -4  -5 -11   13.00    4.20
  -4  -5 -11    2.80    5.20
   4  -5  11   12.50    4.10
  -4  -5 -11   12.10    4.20
  -4   5 -11   13.70    4.00
  -4   5 -11   14.70    3.80
   4   5  11   22.20    4.50
  -4  -6  11   16.10    3.40
   4  -6 -11   22.00    4.50
   4  -6 -11   15.70    3.90
  -4   6  11   12.40    2.60
   4   6 -11   13.20    3.80
  -3  -6  11    2.20    2.10
   3  -6 -11    6.20    3.90
   3  -6 -11   -2.20    1.60
   3  -6 -11    4.30    3.00
   3   6 -11    0.90    2.80
  -3   6  11    4.70    2.60
   2  -6 -11   45.70    7.10
   2  -6 -11   60.29    8.80
  -2  -6  11   47.60    6.50
   2  -6 -11   50.29    7.80
   2   6 -11   46.30    6.90
  -2   6  11   57.39    6.90
   1  -6 -11    8.40    4.60
  -1  -6  11    8.30    2.80
   1  -6 -11   11.90    3.80
   1  -6 -11    6.40    3.50
  -1   6  11    8.90    3.10
  -1   6  11   13.00    3.60
   1   6 -11    9.60    3.20
  -1   6  11    6.20    3.20
   0  -6 -11    6.30    3.10
   0  -6  11    4.80    2.40
   0  -6 -11    6.20    3.00
   0   6 -11    7.80    2.90
   1  -6  11   42.80    7.70
  -1  -6 -11   38.10    6.20
   1  -6  11   28.00    6.60
  -1  -6 -11   38.40    6.70
  -1  -6 -11   34.40    6.20
  -1  -6 -11   46.00   10.00
   1  -6  11   29.20    5.20
  -1   6 -11   32.60    6.30
   1   6  11   31.60    8.40
  -1   6 -11   30.40    5.50
  -2  -6 -11   20.80    6.10
  -2  -6 -11    8.30    3.80
  -2  -6 -11   21.40    4.80
   2  -6  11   14.20    3.10
  -2  -6 -11   14.00    5.60
   2  -6  11   11.90    5.20
   2  -6  11    5.80    4.50
   2   6  11   11.40    4.80
  -2   6 -11   23.30    5.30
  -2   6 -11   11.70    3.80
   3  -6  11   64.59    5.60
  -3  -6 -11   53.99    7.50
   3  -6  11   67.09    9.90
  -3  -6 -11   56.39   10.10
  -3  -6 -11   59.19    9.00
  -3  -6 -11   60.39    9.40
  -3   6 -11   65.79    7.50
  -3   6 -11   64.79    7.30
  -4  -6 -11   12.40    4.90
  -4  -6 -11   -2.40    2.10
   4  -6  11    0.90    1.50
   4   6  11    3.60    2.20
  -4   6 -11    3.90    2.40
  -4   6 -11    1.90    2.30
   4  -7 -11    0.90    2.00
  -4  -7  11   -0.60    1.50
   4  -7 -11   -3.40    1.90
  -4   7  11    5.30    2.30
  -4   7  11    1.90    1.90
  -4   7  11   -2.60    2.40
   4   7 -11    3.90    2.10
   4   7 -11   -1.10    2.80
   3  -7 -11   11.20    3.90
  -3  -7  11    7.10    2.80
   3  -7 -11    2.40    2.60
   3   7 -11    7.30    3.50
  -3   7  11    7.00    2.80
  -2  -7  11   39.10    6.30
   2  -7 -11   51.09    7.80
   2  -7 -11   33.90    6.80
   2  -7 -11   40.40    6.50
   2   7 -11   44.50    6.60
  -2   7  11   28.40    5.70
   1  -7 -11   57.89    8.40
   1  -7 -11   64.29    8.30
   1  -7 -11   43.30    6.50
  -1  -7  11   49.60    6.70
   1   7 -11   59.19    7.10
  -1   7  11   53.39    6.70
  -1   7  11   76.09    8.20
   0  -7 -11   39.60    6.60
   0  -7 -11   39.00    7.30
   0  -7 -11   39.30    6.20
   0  -7  11   35.60    5.20
   0  -7 -11   38.90    8.20
   0   7 -11   34.90    6.30
   0   7  11   43.10    6.30
   0   7 -11   37.10    5.60
  -1  -7 -11    5.50    3.10
   1  -7  11   -0.40    2.90
   1  -7  11    4.20    2.10
  -1  -7 -11   13.00    4.60
  -1  -7 -11    2.80    2.90
   1   7  11    7.30    6.00
  -1   7 -11   14.70    4.70
  -1   7 -11    2.30    1.90
   2  -7  11    0.00    2.70
  -2  -7 -11    5.50    3.20
  -2  -7 -11    2.80    5.40
   2  -7  11    1.60    2.30
  -2  -7 -11    1.70    3.30
  -2  -7 -11    2.70    2.50
  -2   7 -11    2.70    3.70
   2   7  11   -0.60    3.60
  -2   7 -11   -2.70    2.10
  -3  -7 -11    6.80    5.30
  -3  -7 -11    6.30    3.70
  -3  -7 -11   13.30    5.20
   3  -7  11    5.70    3.00
  -3   7 -11    5.20    2.90
  -3   7 -11    3.60    2.40
   3   7  11    5.20    3.00
   4  -7  11   10.50    3.30
  -4  -7 -11    8.90    2.90
  -4   7 -11    9.90    2.60
   4   7  11    3.80    2.10
  -4   7 -11    6.30    2.60
   3  -8 -11    3.50    2.40
  -3  -8  11   -1.50    1.20
   3  -8 -11    1.30    1.70
   3   8 -11    2.50    2.30
  -3   8  11   -0.10    2.10
  -2  -8  11    0.80    2.40
   2  -8 -11    1.80    2.20
   2   8 -11    2.60    2.40
  -2   8  11    4.00    3.10
  -2   8  11    2.60    2.20
   1  -8 -11    3.80    3.20
   1  -8 -11    6.30    3.40
   1  -8 -11    7.20    4.00
  -1  -8  11    5.00    2.60
  -1   8  11   -1.10    2.40
   0  -8  11  235.98   12.40
   0  -8 -11  208.38   16.00
   0  -8 -11  218.18   14.20
   0  -8 -11  205.88   15.90
   0   8 -11  248.48   14.60
   0   8  11  216.48   13.70
   0   8 -11  211.28   13.90
   1  -8  11   16.80    5.40
  -1  -8 -11   15.00    4.50
   1  -8  11    8.70    2.80
  -1  -8 -11    6.80    3.00
  -1  -8 -11    5.30    4.50
  -1  -8 -11   12.50    4.40
  -1   8 -11    9.40    3.60
  -1   8 -11   13.90    3.70
   1   8  11   11.30    6.50
  -2  -8 -11   -0.60    4.00
   2  -8  11    1.30    3.20
  -2  -8 -11   -4.10    4.60
  -2  -8 -11    5.90    3.30
  -2  -8 -11    5.70    3.40
  -2   8 -11    4.40    2.20
   2   8  11    1.00    4.00
  -2   8 -11    5.40    3.30
  -3  -8 -11   15.80    5.30
  -3  -8 -11   20.10    4.20
   3  -8  11   23.30    5.10
  -3   8 -11   29.00    4.60
   3   8  11   13.30    4.10
  -3   8 -11   18.90    4.00
  -3  -9  11    1.10    1.30
   3  -9 -11    5.40    2.50
   3  -9 -11    2.00    1.90
  -3   9  11    4.50    2.20
   3   9 -11    3.80    2.50
   2  -9 -11   12.10    3.10
  -2  -9  11    7.70    2.30
   2  -9 -11    9.20    3.40
  -2   9  11    8.60    2.60
   2   9 -11   12.90    3.50
   1  -9 -11   -2.80    2.40
   1  -9 -11    4.40    2.60
  -1  -9  11    0.70    1.70
  -1   9  11    4.10    1.90
   1   9 -11    1.00    1.90
   0  -9  11   -0.70    2.10
   0  -9 -11    0.20    2.10
   0  -9 -11    4.00    3.30
   0   9  11   -1.50    3.30
   0   9 -11   -0.40    2.90
   0   9 -11   -0.90    1.80
  -1  -9 -11    9.70    3.70
  -1  -9 -11    6.60    3.00
  -1   9 -11    7.10    2.90
  -1   9 -11    9.80    3.80
   1   9  11    7.00    2.90
   1   9  11    6.60    3.90
  -2  -9 -11    1.50    2.20
  -2  -9 -11    3.30    4.00
   2   9  11    2.10    2.00
  -2   9 -11   -1.10    2.80
  -3  -9 -11    1.20    3.80
  -3  -9 -11    0.80    1.90
   3   9  11    0.70    1.90
  -3   9 -11    0.70    1.50
  -3   9 -11   -0.10    2.20
   2 -10 -11   -1.30    1.90
   2 -10 -11    2.90    2.10
  -2  10  11   -2.30    2.00
   2  10 -11    3.30    2.40
   1 -10 -11    0.00    1.80
   1 -10 -11   -0.50    2.40
  -1  10  11    2.00    1.80
   1  10 -11    2.10    1.90
   0 -10 -11   -1.20    1.90
   0 -10 -11    5.00    2.70
   0  10  11    0.90    2.80
   0  10 -11   -0.80    1.70
  -1 -10 -11    1.50    2.40
  -1 -10 -11    0.50    2.10
  -1  10 -11    1.10    2.00
   1  10  11   -1.80    3.00
  -1  10 -11    0.00    2.30
  -2 -10 -11    2.10    2.50
  -2 -10 -11   -0.20    1.40
  -2  10 -11    2.90    1.90
  -2  10 -11    0.20    2.20
   2  10  11   -0.30    2.40
  -1  11  11    0.90    1.70
   0 -11 -11   -0.40    1.80
   0 -11 -11    0.80    2.10
   0  11 -11   -0.30    1.70
   0  11  11   -1.20    2.10
  -5   0  12    2.90    2.80
  -5   0  12    1.70    1.50
   5   0 -12    2.20    1.90
  -4   0  12    8.10    5.30
   4   0 -12   14.40    4.50
   4   0 -12   17.40    4.70
  -4   0  12   -2.10    4.20
  -4   0  12   12.80    4.00
  -4   0  12    5.20    3.20
   3   0 -12    2.20    2.90
  -3   0  12   -0.80    1.80
   3   0 -12   -0.30    1.80
  -3   0  12    2.60    2.50
  -2   0  12   40.30    5.10
   2   0 -12   30.00    4.50
  -1   0  12    0.30    1.30
   1   0 -12    4.00    1.60
   0   0 -12 2556.34   66.49
   0   0  12 2551.64   67.49
  -1   0 -12    1.50    1.70
   1   0  12   -1.00    1.20
  -2   0 -12  418.96   19.80
   2   0  12  407.16   20.50
  -2   0 -12  423.26   18.60
   2   0  12  405.26   20.80
  -2   0 -12  424.96   21.30
  -2   0 -12  401.86   17.70
   3   0  12   -1.40    3.10
  -3   0 -12   -0.20    3.20
  -3   0 -12   -1.80    3.40
   3   0  12    3.90    2.80
  -3   0 -12   -0.80    2.20
   3   0  12   -6.50    7.90
  -4   0 -12   36.20    8.20
   4   0  12   26.40    6.30
  -4   0 -12   39.70    6.90
  -4   0 -12   41.90    6.70
   4   0  12   39.40    8.20
  -5   0 -12    0.80    2.60
  -5   0 -12    2.90    2.10
   5  -1 -12   -0.50    1.80
   5   1 -12    2.20    2.10
  -5   1  12    3.50    2.30
  -5   1  12    1.50    1.40
   4  -1 -12   36.80    6.60
  -4  -1  12   20.00    6.60
  -4  -1  12   31.90    6.30
   4  -1 -12   23.70    5.70
  -4  -1  12   31.90    5.80
  -4   1  12   23.60    5.10
  -4   1  12   33.60    6.30
   4   1 -12   26.90    6.00
  -4   1  12   30.00    6.60
   4   1 -12   28.00    5.90
  -3  -1  12   61.29    7.60
  -3  -1  12   65.19    7.30
   3  -1 -12   63.29    7.40
   3  -1 -12   64.19    7.80
  -3  -1  12   59.19    8.10
  -3   1  12   54.29    7.90
  -3   1  12   71.09    8.10
   3   1 -12   68.79    7.90
  -3   1  12   68.19    7.90
   3   1 -12   68.99    8.30
  -2  -1  12   20.40    3.90
   2  -1 -12   17.60    3.70
  -2   1  12   13.80    3.40
   2   1 -12   21.50    4.10
  -1  -1  12  299.17   13.80
  -1   1  12  295.27   14.10
   0  -1  12    2.80    1.80
   0  -1 -12    0.60    1.00
   0   1 -12    1.00    1.20
   0   1  12    1.50    1.60
   1  -1  12   12.70    3.30
  -1  -1 -12   17.70    3.50
  -1   1 -12   10.90    2.30
   1   1  12   13.50    3.60
  -1   1 -12   11.30    2.90
   2  -1  12  693.63   29.80
   2  -1  12  680.83   38.00
  -2  -1 -12  758.42   30.80
   2  -1  12  733.43   30.40
   2  -1  12  749.73   30.00
  -2  -1 -12  738.83   28.60
  -2  -1 -12  745.53   27.30
  -2   1 -12  730.33   26.90
  -2   1 -12  772.32   30.60
  -2   1 -12  737.73   25.60
   2   1  12  729.13   30.10
   2   1  12  755.52   30.30
  -3  -1 -12   88.29    9.60
  -3  -1 -12  100.69   12.60
   3  -1  12   75.99    9.40
   3  -1  12   93.29   10.60
  -3  -1 -12   81.89    9.90
  -3  -1 -12   91.19   10.80
   3   1  12   88.59    9.70
  -3   1 -12   87.69    9.30
  -3   1 -12  100.69    9.60
   3   1  12  100.19   10.20
  -3   1 -12   98.39   10.50
  -3   1 -12   82.59   11.10
   4  -1  12   -6.50    3.10
  -4  -1 -12    2.10    3.10
  -4  -1 -12   -1.20    4.30
   4  -1  12    4.70    3.50
  -4   1 -12    2.90    3.10
  -4   1 -12   -1.60    2.00
   4   1  12   -0.10    2.80
   4   1  12   -0.60    3.90
  -5  -1 -12   -1.50    1.60
  -5  -1 -12   -0.40    2.70
  -5   1 -12    1.20    2.40
  -5   1 -12    0.30    1.60
   5  -2 -12    2.90    1.90
  -5  -2  12    1.20    1.40
   5   2 -12    0.60    1.70
  -5   2  12   -1.40    1.20
  -5   2  12   -3.10    1.50
   4  -2 -12   10.00    3.70
  -4  -2  12    7.60    2.80
   4  -2 -12    9.30    3.90
   4   2 -12    4.30    2.50
  -4   2  12    5.10    3.50
   4   2 -12   10.70    3.80
  -4   2  12    9.90    3.60
  -3  -2  12   -0.70    1.50
  -3  -2  12    0.10    2.50
   3  -2 -12    1.70    2.50
   3  -2 -12    1.10    3.30
   3   2 -12    1.70    2.20
  -3   2  12    1.60    2.10
  -3   2  12   -4.40    6.90
  -3   2  12   -1.30    2.70
  -3   2  12    5.70    3.60
   2  -2 -12  359.06   16.90
  -2  -2  12  372.76   17.00
  -2   2  12  355.96   16.80
  -2   2  12  358.66   17.60
   2   2 -12  346.67   15.90
  -1  -2  12  271.27   12.70
   1  -2 -12  248.28   12.10
  -1   2  12  271.17   13.50
   0  -2 -12 1812.92   50.19
   0  -2  12 1763.72   48.10
   0   2 -12 1747.53   46.20
   0   2  12 1762.62   49.60
   0   2 -12 1724.03   46.30
  -1  -2 -12  332.17   16.40
   1   2  12  331.97   15.70
  -1   2 -12  311.07   12.90
  -1   2 -12  325.47   15.20
  -1   2 -12  341.87   12.10
  -2  -2 -12   12.20    4.50
   2  -2  12    9.20    2.80
   2  -2  12   12.50    7.60
  -2  -2 -12   10.70    3.70
   2  -2  12   13.60    4.20
  -2  -2 -12   18.00    4.10
   2  -2  12   13.20    6.10
  -2   2 -12   10.20    3.50
  -2   2 -12   12.30    3.80
   2   2  12   12.40    3.90
  -2   2 -12    5.40    3.70
  -3  -2 -12   98.09   13.00
  -3  -2 -12   94.19   10.40
  -3  -2 -12   88.29   11.30
   3  -2  12   75.99    9.60
  -3  -2 -12   98.89   10.20
   3  -2  12  105.39   11.20
   3   2  12   90.99    9.80
  -3   2 -12   94.89    9.60
  -3   2 -12   82.09   11.50
   3   2  12   99.19   10.70
  -3   2 -12  104.09    9.90
  -4  -2 -12   34.70    7.50
  -4  -2 -12   38.80    6.40
   4  -2  12   27.20    6.30
  -4  -2 -12   36.00    6.90
   4  -2  12   44.90    7.70
  -4   2 -12   43.90    6.70
   4   2  12   26.80    6.00
   4   2  12   35.60    8.40
  -4   2 -12   38.00    6.60
  -5  -2 -12   -0.60    1.30
  -5  -2 -12   -3.10    3.00
   5  -2  12    3.70    3.30
  -5   2 -12    4.60    2.00
  -5   2 -12    3.50    2.50
   5   2  12   -2.00    7.10
  -5  -3  12   -0.50    1.20
   5  -3 -12    6.00    3.90
   5  -3 -12    0.60    1.80
  -5   3  12    0.20    1.10
  -5   3  12   -0.30    1.10
  -4  -3  12    0.40    1.70
   4  -3 -12    0.10    2.50
   4  -3 -12    2.70    2.60
   4   3 -12   -0.50    1.90
  -4   3  12    2.10    2.00
  -4   3  12   -2.70    2.60
   4   3 -12   -0.60    1.90
  -3  -3  12    1.30    2.50
  -3  -3  12    1.40    2.00
   3  -3 -12    2.10    2.50
   3  -3 -12    3.60    3.10
  -3   3  12   -0.20    1.30
  -3   3  12    3.30    3.20
   3   3 -12   -0.50    1.90
  -3   3  12    0.50    2.80
   2  -3 -12   41.70    6.80
   2  -3 -12   49.60    6.20
  -2  -3  12   40.70    5.60
  -2  -3  12   48.30    5.70
   2   3 -12   56.39    6.10
  -2   3  12   38.90    5.80
  -2   3  12   57.89    5.90
  -2   3  12   55.09    6.50
   1  -3 -12 1045.40   33.30
  -1  -3  12 1034.20   31.90
   1  -3 -12 1043.60   34.20
  -1   3  12 1039.30   33.70
   0  -3 -12   19.40    4.10
   0  -3  12   29.40    3.60
   0  -3 -12   27.50    4.20
   0   3 -12   25.40    3.20
   0   3 -12   28.40    3.10
  -1  -3 -12  167.28   10.60
  -1  -3 -12  180.48   11.90
  -1   3 -12  175.78   10.80
   1   3  12  175.78   10.90
  -2  -3 -12  103.39    9.60
   2  -3  12  103.59   10.50
   2  -3  12  103.39    9.80
  -2  -3 -12  100.39   11.40
   2  -3  12  107.49   14.00
  -2  -3 -12  114.09   10.30
   2   3  12  100.89   10.40
  -2   3 -12  103.39    8.60
   3  -3  12  113.39   12.00
  -3  -3 -12  110.09   11.20
  -3  -3 -12  105.89   12.30
   3  -3  12  108.39   11.30
  -3  -3 -12  117.59   11.30
  -3   3 -12  100.99    9.50
   3   3  12  121.49   11.80
   3   3  12  115.29   11.90
  -3   3 -12  108.99   11.80
  -4  -3 -12    8.10    5.70
  -4  -3 -12    3.70    3.50
  -4  -3 -12    0.50    2.30
   4  -3  12    1.60    2.40
  -4   3 -12    4.10    2.40
   4   3  12   -0.60    2.60
  -4   3 -12    2.00    2.90
  -5  -3 -12    0.10    1.50
   5  -3  12    6.90    3.20
  -5   3 -12   -2.80    2.20
  -5   3 -12   -0.70    1.70
   5  -4 -12    6.30    2.50
  -5  -4  12    0.00    1.00
   5  -4 -12    0.70    1.90
  -5   4  12   -1.30    1.10
   5   4 -12    1.20    1.60
  -4  -4  12    9.50    3.20
   4  -4 -12   12.20    4.00
   4  -4 -12   16.50    4.40
  -4   4  12   15.30    3.50
   4   4 -12    6.80    3.80
  -4   4  12    9.10    3.20
   4   4 -12   10.50    3.90
   3  -4 -12   29.00    6.00
   3  -4 -12   33.80    5.70
  -3  -4  12   28.00    5.40
  -3   4  12   29.10    5.70
  -3   4  12   27.40    5.60
   3   4 -12   29.30    6.30
  -3   4  12   40.00    7.50
  -2  -4  12   45.00    6.20
   2  -4 -12   46.90    9.10
  -2  -4  12   53.69    6.00
   2  -4 -12   50.29    6.70
   2  -4 -12   45.90    6.60
   2   4 -12   48.70    6.30
  -2   4  12   64.89    7.00
  -2   4  12   45.10    6.50
  -2   4  12   53.59    6.90
  -2   4  12   55.89    6.70
   1  -4 -12  230.88   13.30
   1  -4 -12  258.37   13.90
  -1  -4  12  241.78   11.10
  -1   4  12  231.78   12.50
   1   4 -12  242.18   12.20
   0  -4  12    3.80    1.80
   0  -4 -12    2.20    2.00
   0   4 -12    6.70    2.20
   0   4  12    9.60    2.60
   1  -4  12  193.88   17.80
   1  -4  12  157.58   13.30
  -1  -4 -12  175.48   12.50
  -1  -4 -12  182.08   11.50
   1  -4  12  179.98   13.30
   1  -4  12  167.48   12.60
  -1   4 -12  174.28   11.30
   2  -4  12    3.20    3.70
  -2  -4 -12    7.50    4.20
   2  -4  12    4.80    2.80
  -2  -4 -12    3.80    2.70
  -2  -4 -12    3.30    3.10
   2  -4  12    7.60    3.10
   2   4  12    2.70    3.00
  -2   4 -12    6.80    3.20
  -2   4 -12    3.50    3.60
  -3  -4 -12   25.90    7.90
   3  -4  12   24.60    6.20
  -3  -4 -12   29.00    6.30
  -3  -4 -12   19.10    5.60
   3  -4  12   17.60    5.40
  -3   4 -12   15.20    5.20
  -3   4 -12   20.80    5.30
   3   4  12   17.20    5.10
   3   4  12   11.20    4.50
  -4  -4 -12   -4.30    4.50
  -4  -4 -12    1.00    2.20
  -4  -4 -12   -1.50    2.10
   4  -4  12    3.00    2.90
   4   4  12    2.40    2.30
  -4   4 -12    3.90    2.80
  -4   4 -12    0.80    1.80
   4  -5 -12    1.70    3.20
  -4  -5  12    3.80    1.90
   4  -5 -12    6.40    3.00
  -4   5  12    5.50    2.60
   4   5 -12    3.20    2.90
   4   5 -12    3.70    2.40
  -4   5  12    3.10    4.80
   3  -5 -12    4.60    3.20
   3  -5 -12   -0.30    1.90
  -3  -5  12    1.20    1.90
  -3   5  12   -0.70    1.60
  -3   5  12   -1.60    2.20
  -3   5  12   -4.80    4.50
   3   5 -12   -0.70    2.30
  -2  -5  12   36.00    5.90
   2  -5 -12   40.20    6.00
   2  -5 -12   40.50    7.60
   2  -5 -12   29.90    6.20
  -2   5  12   24.60    6.00
   2   5 -12   26.20    5.60
  -2   5  12   24.90    5.40
  -2   5  12   27.20    6.20
   1  -5 -12  582.64   25.90
   1  -5 -12  636.14   26.00
   1  -5 -12  605.14   24.70
  -1  -5  12  596.64   22.00
  -1   5  12  594.14   22.70
  -1   5  12  626.44   24.90
  -1   5  12  563.24   22.40
   1   5 -12  625.54   23.30
   0  -5 -12   36.60    6.10
   0  -5  12   42.70    8.00
   0  -5 -12   31.70    6.00
   0  -5 -12   46.30    6.00
   0   5  12   30.40    4.80
   0   5 -12   28.60    5.60
   0   5 -12   32.90    4.30
  -1  -5 -12  353.56   19.90
   1  -5  12  324.77   19.80
  -1  -5 -12  362.56   21.20
  -1  -5 -12  336.77   17.50
   1  -5  12  344.57   19.40
  -1   5 -12  364.46   18.30
   1   5  12  341.97   22.80
  -1   5 -12  337.07   15.90
  -2  -5 -12   -3.10    2.40
  -2  -5 -12    0.50    2.10
  -2  -5 -12   -0.40    2.70
   2  -5  12    0.80    2.50
   2  -5  12   -0.20    3.80
   2  -5  12   -4.10    2.10
  -2   5 -12    1.30    4.30
  -2   5 -12   -2.00    2.50
   3  -5  12   58.19    9.40
  -3  -5 -12   55.99    8.00
   3  -5  12   41.50    8.80
  -3  -5 -12   52.99    8.60
   3  -5  12   44.30    5.50
  -3  -5 -12   60.39   10.10
   3   5  12   44.10    9.50
   3   5  12   61.09    8.20
  -3   5 -12   53.19    7.10
  -3   5 -12   43.10    7.80
   4  -5  12    2.00    2.50
  -4  -5 -12   -0.10    2.10
  -4  -5 -12    0.40    2.70
   4   5  12   -1.60    1.70
  -4   5 -12    2.10    2.70
  -4   5 -12    3.50    2.50
  -4  -6  12    4.50    1.40
   4  -6 -12    7.40    3.10
   4  -6 -12    4.00    2.70
  -4   6  12    7.20    2.50
   4   6 -12    5.00    2.50
  -4   6  12    9.60    4.80
   4   6 -12    6.20    3.10
   3  -6 -12   34.70    7.30
   3  -6 -12   29.00    5.80
   3  -6 -12   35.80    6.30
  -3  -6  12   37.70    5.60
   3   6 -12   30.90    6.60
  -3   6  12   34.80    5.40
   2  -6 -12    0.80    2.20
   2  -6 -12    2.60    2.70
   2  -6 -12   -6.00    3.10
  -2  -6  12   -1.70    2.10
  -2   6  12   -4.30    2.10
   2   6 -12   -0.10    2.30
   1  -6 -12   24.00    5.70
   1  -6 -12   25.70    5.10
   1  -6 -12   13.80    4.60
  -1  -6  12    5.50    2.90
  -1   6  12   11.80    3.80
   1   6 -12    5.90    3.00
  -1   6  12   12.70    3.80
  -1   6  12   14.60    4.40
   0  -6 -12   21.20    5.90
   0  -6  12   26.90    5.30
   0  -6 -12   33.90    6.30
   0  -6 -12   28.90    5.70
   0   6 -12   25.80    4.90
   0   6  12   25.70    5.60
   1  -6  12  409.66   15.10
  -1  -6 -12  378.16   22.50
   1  -6  12  383.26   21.40
  -1  -6 -12  394.76   24.00
  -1  -6 -12  416.36   22.40
   1  -6  12  406.46   23.30
  -1  -6 -12  399.36   20.40
  -1   6 -12  383.76   18.20
   1   6  12  412.36   25.40
  -1   6 -12  384.86   20.30
  -2  -6 -12   43.20    7.50
  -2  -6 -12   43.60    7.50
   2  -6  12   29.20    7.20
  -2  -6 -12   31.30    6.00
   2  -6  12   43.90    8.60
   2  -6  12   34.20    4.90
   2   6  12   28.10    6.20
  -2   6 -12   38.40    6.30
   3  -6  12    6.40    4.30
  -3  -6 -12    5.80    4.10
  -3  -6 -12   22.50    5.20
  -3  -6 -12   13.50    5.00
  -3   6 -12   20.10    5.00
   3   6  12   12.60    4.30
  -3   6 -12   13.40    3.90
  -4  -6 -12    1.10    2.40
   4  -6  12    3.30    2.00
  -4  -6 -12   -4.60    4.30
  -4   6 -12    0.00    2.30
   4   6  12   -2.10    1.60
  -4   6 -12    3.40    2.50
   4  -7 -12    6.90    2.50
  -4  -7  12    4.90    1.60
   4  -7 -12    6.90    3.40
  -4   7  12    3.20    3.00
   4   7 -12   -1.10    2.70
   4   7 -12    8.40    2.20
  -4   7  12    3.40    2.00
   3  -7 -12    2.40    3.00
   3  -7 -12    5.90    3.00
  -3  -7  12    1.30    1.90
   3   7 -12    2.10    2.50
  -3   7  12    8.00    2.60
   2  -7 -12    4.20    3.40
  -2  -7  12   10.50    3.10
   2  -7 -12    7.70    3.30
   2  -7 -12    3.80    2.70
  -2   7  12   10.30    3.70
  -2   7  12   11.50    3.30
   2   7 -12    8.10    3.40
   1  -7 -12  131.29   11.90
  -1  -7  12  122.69    9.40
   1  -7 -12  123.29   12.20
   1  -7 -12  127.19   10.90
  -1   7  12  123.19   10.40
  -1   7  12  123.59   10.00
   1   7 -12  130.69   10.30
   0  -7  12    1.10    2.30
   0  -7 -12    2.30    2.50
   0  -7 -12    0.00    4.00
   0  -7 -12    1.10    2.80
   0  -7 -12    2.50    2.30
   0   7  12   -1.30    2.30
   0   7 -12   -2.80    1.90
  -1  -7 -12    3.60    3.50
   1  -7  12    4.00    3.20
   1  -7  12    5.60    3.00
  -1  -7 -12    4.00    3.00
  -1  -7 -12   -1.90    4.40
  -1  -7 -12    0.80    2.20
   1   7  12    7.40    5.20
  -1   7 -12    3.50    2.30
  -2  -7 -12    4.00    2.70
  -2  -7 -12    4.60    3.20
  -2  -7 -12    3.20    3.10
  -2  -7 -12   16.40    6.90
   2  -7  12    2.50    3.20
  -2   7 -12    4.20    2.60
  -2   7 -12   -0.10    3.90
   2   7  12    1.50    3.20
  -3  -7 -12   26.20    6.10
  -3  -7 -12   17.80    6.00
   3  -7  12   19.50    5.30
  -3  -7 -12   25.10    5.80
  -3  -7 -12   18.10    7.10
  -3   7 -12   27.00    4.80
  -3   7 -12   29.20    5.70
   3   7  12   26.70    5.40
   4  -7  12    3.50    2.20
  -4  -7 -12   -0.60    1.30
   4   7  12   -0.30    1.60
  -4   7 -12    0.40    1.70
   3  -8 -12    1.90    2.20
  -3  -8  12    0.10    1.40
  -3   8  12   -2.50    2.00
   3   8 -12   -1.50    1.70
  -3   8  12    3.80    2.20
  -2  -8  12    1.60    2.30
   2  -8 -12    2.50    2.10
   2  -8 -12    8.10    3.40
  -2   8  12    4.90    2.70
   2   8 -12   -0.90    2.10
  -2   8  12   -1.40    3.00
   1  -8 -12    6.90    3.70
   1  -8 -12    8.10    4.20
   1  -8 -12   17.20    4.90
  -1  -8  12    9.50    3.20
   1  -8 -12    9.20    7.30
  -1   8  12   17.40    4.10
   1   8 -12   19.70    4.60
   0  -8 -12   10.30    4.40
   0  -8 -12    7.80    5.30
   0  -8 -12    7.80    3.20
   0  -8  12    7.50    3.10
   0   8 -12    8.20    3.20
   0   8  12   10.80    3.30
   0   8 -12   20.60    5.10
  -1  -8 -12   -2.40    3.50
  -1  -8 -12   -3.20    1.90
  -1  -8 -12   -2.90    3.30
   1  -8  12   -2.80    3.50
  -1  -8 -12   -2.90    2.20
  -1   8 -12    5.00    3.90
  -1   8 -12   -1.50    2.00
   1   8  12    1.80    2.40
   1   8  12    3.50    4.60
  -2  -8 -12   16.90    4.40
  -2  -8 -12    6.00    5.40
   2  -8  12   10.80    4.40
  -2  -8 -12   16.30    5.80
  -2  -8 -12   19.80    5.50
  -2   8 -12   20.80    4.60
   2   8  12   12.30    4.70
  -2   8 -12   21.30    3.90
   3  -8  12    9.60    3.10
  -3  -8 -12    3.50    2.20
  -3   8 -12    5.00    2.10
   3   8  12    2.30    2.20
   3  -9 -12    1.70    1.90
   3  -9 -12   -2.10    1.30
  -3   9  12    1.00    2.30
   3   9 -12    5.00    2.40
   2  -9 -12    5.90    3.10
  -2   9  12    7.00    2.40
   2   9 -12    5.80    2.80
   1  -9 -12  129.79   11.10
   1  -9 -12  120.89   11.10
  -1  -9  12  114.49    6.80
   1   9 -12  106.99    9.50
  -1   9  12  116.89    8.40
   0  -9 -12    5.40    2.90
   0  -9 -12    5.40    3.90
   0   9 -12    6.50    2.90
   0   9 -12    7.60    3.80
   0   9  12    1.90    3.80
  -1  -9 -12    5.60    5.80
  -1  -9 -12    4.20    3.40
  -1  -9 -12    6.20    3.20
   1   9  12    4.80    4.10
  -1   9 -12   -1.00    3.40
  -1   9 -12    9.80    3.10
  -2  -9 -12    0.00    1.90
  -2  -9 -12    6.90    3.90
  -2   9 -12   -2.20    2.80
  -2   9 -12   -0.10    2.00
   2   9  12    3.60    2.30
   2 -10 -12    1.20    1.80
   2 -10 -12   -0.60    2.10
  -2  10  12    1.60    2.00
   2  10 -12    0.40    2.00
   1 -10 -12    0.20    2.10
   1 -10 -12    4.80    2.40
   1  10 -12    4.60    2.40
  -1  10  12    2.30    3.00
   0 -10 -12    1.80    2.60
   0 -10 -12    0.90    2.50
   0  10  12   -0.40    3.30
   0  10 -12    1.80    2.00
  -1 -10 -12    1.70    3.10
  -1 -10 -12    1.20    2.10
   1  10  12    3.60    3.60
  -1  10 -12    0.30    2.00
  -1  10 -12    8.70    3.30
  -2 -10 -12    3.60    1.90
  -2 -10 -12   -3.60    2.90
   2  10  12    6.60    3.40
   0 -11 -12    0.10    2.10
  -5   0  13    7.10    2.40
   5   0 -13    5.70    2.60
  -4   0  13   -1.30    1.70
   4   0 -13    2.90    2.70
  -4   0  13    4.20    2.80
  -4   0  13    9.80    7.60
   4   0 -13    2.60    3.20
  -3   0  13   29.00    5.90
   3   0 -13   28.80    5.60
   3   0 -13   24.90    5.60
  -3   0  13   30.50    5.20
  -2   0  13    1.00    2.70
   2   0 -13   -0.80    1.80
  -2   0  13    1.90    1.90
  -1   0  13 1094.59   34.20
   1   0 -13 1009.60   29.80
   0   0  13   -0.50    1.30
   0   0 -13    0.90    1.40
   1   0  13 2057.59   58.99
  -1   0 -13 2074.89   57.59
   2   0  13   -0.20    2.30
  -2   0 -13   -2.00    2.30
   2   0  13   -4.90    3.10
  -2   0 -13    1.00    2.10
  -2   0 -13    0.70    2.30
  -2   0 -13    4.30    2.60
   2   0  13   -3.20    2.50
  -3   0 -13    5.70    3.50
   3   0  13   -2.00    2.60
  -3   0 -13    2.40    3.20
   3   0  13    1.50    2.60
  -3   0 -13    7.20    4.70
   3   0  13   -5.60    7.10
  -3   0 -13    2.70    4.40
   4   0  13    2.30    2.60
  -4   0 -13   -0.20    2.20
   4   0  13   -4.30    3.00
  -4   0 -13   -4.80    2.40
  -5   0 -13    2.00    1.80
  -5   0 -13   -1.00    2.50
   5  -1 -13   -2.20    1.80
  -5  -1  13   -0.30    1.40
   5   1 -13    1.60    1.40
  -5   1  13    2.60    1.90
  -5   1  13   -0.30    1.10
  -4  -1  13   12.50    3.90
   4  -1 -13    9.80    3.70
  -4  -1  13   14.40    4.30
  -4   1  13   14.40    4.10
   4   1 -13   13.40    4.10
   4   1 -13   27.80    5.60
  -3  -1  13  163.78   12.90
   3  -1 -13  147.29   11.80
  -3  -1  13  151.78   11.30
  -3  -1  13  154.78   11.80
   3  -1 -13  166.48   12.40
   3   1 -13  162.18   12.70
   3   1 -13  155.78   12.00
  -3   1  13  149.79   11.70
  -3   1  13  157.48   12.90
   2  -1 -13   54.89    6.00
  -2  -1  13   55.99    6.30
  -2   1  13   52.29    6.50
   2   1 -13   54.39    6.00
  -2   1  13   47.10    5.80
  -1  -1  13  499.15   20.00
  -1   1  13  524.05   20.80
   0  -1  13  474.65   18.40
   0  -1 -13  468.95   18.70
   0   1 -13  476.55   17.40
   0   1  13  473.25   18.90
  -1  -1 -13  911.41   32.30
   1  -1  13  985.20   31.70
  -1   1 -13  984.00   32.60
   1   1  13  933.21   32.80
  -1   1 -13  979.30   29.60
  -2  -1 -13  113.69   10.20
  -2  -1 -13  122.69   11.30
   2  -1  13  116.89   13.00
   2  -1  13  129.59   10.60
   2  -1  13  113.59   10.40
   2  -1  13  112.09   11.70
  -2  -1 -13  101.59    8.90
  -2   1 -13  126.09   11.00
   2   1  13  110.39   10.30
   2   1  13  100.79   10.10
  -2   1 -13  106.99    8.90
  -2   1 -13  112.39    8.50
   2   1  13   97.79   12.20
   2   1  13  107.69   10.20
  -3  -1 -13   -3.70    3.10
  -3  -1 -13    2.30    2.90
  -3  -1 -13    4.50    5.00
   3  -1  13    0.90    2.60
  -3  -1 -13    2.40    2.90
   3  -1  13    3.80    3.00
  -3   1 -13    7.30    5.50
  -3   1 -13    9.80    4.70
   3   1  13    7.70    3.00
  -3   1 -13    1.80    3.10
  -3   1 -13    0.30    3.30
   3   1  13    5.30    2.80
  -4  -1 -13    5.00    2.70
  -4  -1 -13   -0.40    5.20
   4  -1  13    2.20    3.70
  -4  -1 -13    5.10    3.10
   4  -1  13    5.90    3.30
  -4   1 -13    3.40    3.30
   4   1  13    3.60    3.40
   4   1  13    0.80    2.30
  -5  -1 -13    3.90    2.10
  -5  -1 -13    2.00    2.80
  -5   1 -13   -0.10    2.70
  -5   1 -13    0.30    2.10
  -5  -2  13    4.70    1.60
   5  -2 -13    4.20    2.40
  -5   2  13    2.00    1.70
   5   2 -13    1.90    2.10
  -5   2  13    4.20    1.80
   4  -2 -13    7.50    3.40
  -4  -2  13    1.50    1.90
   4  -2 -13   -0.90    2.60
  -4   2  13    0.40    1.40
   4   2 -13    2.70    2.60
   4   2 -13   -2.20    2.20
  -4   2  13   -0.80    3.60
  -3  -2  13  134.29   11.20
   3  -2 -13  128.09   11.00
  -3  -2  13  138.99   10.70
  -3  -2  13  129.89   10.40
   3  -2 -13  128.89   11.40
  -3   2  13  129.69   10.90
  -3   2  13  101.29   13.40
  -3   2  13  126.49   11.80
  -3   2  13  135.59   10.50
   3   2 -13  129.39   10.80
   2  -2 -13   24.70    5.50
  -2  -2  13   14.50    3.50
   2  -2 -13   16.70    4.00
  -2  -2  13   13.10    3.10
  -2   2  13   12.80    3.30
  -2   2  13   11.60    3.20
   2   2 -13   13.20    3.50
   1  -2 -13  328.87   15.60
  -1  -2  13  313.17   14.70
   1  -2 -13  321.07   14.30
  -1   2  13  337.47   15.90
   0  -2  13  167.28    9.30
   0  -2 -13  157.58   10.10
   0   2  13  149.49    9.70
   0   2 -13  161.08    8.10
   0   2 -13  153.48    7.90
  -1  -2 -13  946.41   33.20
  -1  -2 -13  872.71   29.70
  -1   2 -13  938.11   31.30
   1   2  13  975.70   32.40
  -1   2 -13  868.81   28.10
  -1   2 -13  937.61   26.90
   2  -2  13  119.89   10.70
   2  -2  13  124.99   14.90
  -2  -2 -13  117.49   11.00
  -2  -2 -13  120.39   12.10
   2  -2  13  118.49   11.30
  -2  -2 -13  125.39   10.20
   2  -2  13  133.09   14.40
  -2   2 -13  143.89   11.80
   2   2  13  119.99   10.70
   2   2  13  126.09   14.80
   2   2  13  138.19   11.50
   2   2  13  147.49   12.20
  -2   2 -13  130.99   10.00
  -2   2 -13  122.79    8.80
   3  -2  13   79.29    9.40
  -3  -2 -13   71.19    9.50
  -3  -2 -13   71.19   10.10
   3  -2  13   86.09   10.60
  -3  -2 -13   80.89    9.50
   3   2  13   78.89   10.40
   3   2  13   84.39    9.80
  -3   2 -13   86.39    9.50
  -3   2 -13   79.79    8.90
   4  -2  13    1.20    3.10
  -4  -2 -13    0.20    4.80
  -4  -2 -13    4.60    2.40
  -4  -2 -13    3.30    2.80
   4  -2  13   -1.80    3.30
  -4   2 -13    3.20    3.20
  -4   2 -13    2.00    2.20
   4   2  13   -0.60    3.50
   4   2  13    0.10    2.60
  -5  -2 -13    3.30    3.20
  -5  -2 -13    2.70    2.00
  -5   2 -13    6.30    2.10
  -5   2 -13    8.90    2.90
   5  -3 -13   -0.50    1.60
  -5  -3  13   -1.40    1.10
   5  -3 -13   -1.10    3.60
  -5   3  13    0.40    1.10
  -5   3  13    2.30    1.40
   5   3 -13   -0.10    2.10
   4  -3 -13    8.20    3.20
  -4  -3  13    5.90    3.10
   4  -3 -13    8.30    3.50
  -4   3  13    8.70    3.00
   4   3 -13    3.00    2.50
   4   3 -13    7.40    3.30
   3  -3 -13   26.40    6.00
  -3  -3  13   34.80    5.70
  -3  -3  13   28.10    5.90
   3  -3 -13   28.40    6.00
  -3   3  13   31.00    5.90
  -3   3  13   31.80    7.10
  -3   3  13   30.70    5.50
   3   3 -13   36.10    5.90
  -2  -3  13   66.99    7.20
  -2  -3  13   72.29    7.10
   2  -3 -13   75.79    8.00
   2  -3 -13   78.49    7.80
  -2   3  13   61.49    7.20
   2   3 -13   84.39    7.20
  -2   3  13   82.39    8.10
   1  -3 -13   31.90    4.80
  -1  -3  13   35.00    4.40
   1  -3 -13   49.40    5.90
  -1   3  13   35.20    5.00
   0  -3 -13  193.68   10.90
   0  -3 -13  214.48   12.20
   0  -3  13  201.48   10.10
   0   3 -13  203.98    9.40
   0   3 -13  182.88    8.40
   0   3  13  204.88   11.40
   0   3 -13  206.38    8.50
   1  -3  13  154.88   15.10
   1  -3  13  150.38   11.00
   1  -3  13  161.98   12.20
  -1  -3 -13  160.38   10.50
  -1  -3 -13  165.78   11.80
   1   3  13  164.08   10.80
  -1   3 -13  158.48   10.50
   1   3  13  169.48   12.60
  -2  -3 -13   -2.30    3.40
   2  -3  13    2.30    2.90
  -2  -3 -13    2.60    3.20
   2  -3  13    2.30    2.90
  -2  -3 -13   -1.40    1.70
   2   3  13    4.30    2.80
   2   3  13  -10.00    6.90
  -2   3 -13   -5.70    3.40
  -2   3 -13    1.40    3.20
   2   3  13   -0.20    2.10
   3  -3  13   44.30    8.50
   3  -3  13   63.99    9.00
  -3  -3 -13   68.29    8.80
  -3  -3 -13   43.50    8.90
  -3  -3 -13   47.60    8.00
   3   3  13   44.50    7.90
  -3   3 -13   61.19    7.60
   3   3  13   49.99    8.50
  -4  -3 -13    6.80    3.30
  -4  -3 -13   10.80    4.10
  -4  -3 -13   10.90    6.10
   4  -3  13    7.10    3.60
   4   3  13    7.80    4.90
  -4   3 -13    9.60    3.40
  -4   3 -13   10.80    4.10
   4   3  13    4.30    2.60
   5  -4 -13   10.00    3.50
   5  -4 -13    1.50    1.80
   5   4 -13   -2.50    1.60
  -5   4  13   -1.10    1.10
  -4  -4  13   20.00    4.40
   4  -4 -13   19.30    4.70
   4  -4 -13   29.10    5.40
   4   4 -13   16.30    4.90
  -4   4  13   17.40    3.40
   4   4 -13   22.10    5.60
  -4   4  13   13.80    3.90
  -3  -4  13   21.40    6.40
   3  -4 -13   10.90    3.90
  -3  -4  13   21.60    4.80
   3  -4 -13   27.30    5.70
  -3   4  13   24.30    5.50
  -3   4  13   17.00    4.50
   3   4 -13   20.90    5.40
  -3   4  13   15.50    4.40
  -2  -4  13  133.19    9.90
   2  -4 -13  150.88   11.80
   2  -4 -13  140.49   10.90
  -2  -4  13  140.09    9.70
   2   4 -13  165.08   11.00
  -2   4  13  164.48   11.50
  -2   4  13  148.49   10.30
  -2   4  13  139.49   11.30
   1  -4 -13  129.59    9.90
  -1  -4  13  133.89    8.00
   1  -4 -13  116.39   10.40
   1  -4 -13  112.49   10.30
  -1   4  13  123.49    9.10
   1   4 -13  124.99    9.00
  -1   4  13  113.59    9.50
   0  -4 -13   29.20    4.80
   0  -4  13   31.20    4.30
   0  -4 -13   30.00    5.50
   0  -4  13   30.90    6.50
   0   4  13   33.90    4.70
   0   4 -13   38.00    4.10
  -1  -4 -13  347.77   18.60
   1  -4  13  317.27   18.10
   1  -4  13  356.86   24.80
   1  -4  13  321.07   18.90
  -1  -4 -13  324.37   16.70
   1  -4  13  332.77   18.90
  -1  -4 -13  325.67   18.70
   1   4  13  335.67   21.90
   1   4  13  338.97   19.50
  -1   4 -13  338.67   16.80
  -2  -4 -13  223.78   16.50
   2  -4  13  233.28   16.40
  -2  -4 -13  229.68   18.00
   2  -4  13  224.08   15.30
  -2  -4 -13  229.48   15.30
   2   4  13  224.68   18.90
  -2   4 -13  249.28   16.70
  -2   4 -13  213.68   13.00
   2   4  13  221.78   16.50
  -3  -4 -13    3.50    2.80
   3  -4  13   -0.10    3.10
  -3  -4 -13    0.10    3.20
   3  -4  13    4.30    3.80
  -3  -4 -13    5.00    3.60
   3   4  13    3.60    3.70
  -3   4 -13    2.90    3.20
  -3   4 -13   -1.90    4.10
   3   4  13    5.70    3.20
  -4  -4 -13    1.70    2.50
   4  -4  13    1.80    2.90
  -4  -4 -13    2.80    2.90
  -4  -4 -13   -6.50    4.90
  -4   4 -13    5.60    2.70
   4   4  13    0.90    1.80
  -4   4 -13   -2.80    2.70
   4  -5 -13    7.20    2.90
   4  -5 -13    1.30    3.50
  -4  -5  13   -1.00    1.40
   4   5 -13   -0.10    2.30
   4   5 -13   -1.00    2.10
  -4   5  13   -0.90    2.30
  -4   5  13    4.50    4.80
   3  -5 -13   20.00    5.40
   3  -5 -13   12.00    4.00
   3  -5 -13   12.50    5.70
   3   5 -13   19.70    5.20
  -3   5  13    7.90    6.50
  -3   5  13   28.30    5.40
   2  -5 -13    5.50    5.30
  -2  -5  13    7.30    2.80
   2  -5 -13    2.50    2.70
   2  -5 -13    2.30    2.80
   2   5 -13   11.70    3.60
  -2   5  13    0.50    2.70
  -2   5  13    4.20    3.10
   1  -5 -13   39.90    6.40
  -1  -5  13   48.90    6.00
   1  -5 -13   48.90    6.40
   1   5 -13   55.39    6.60
  -1   5  13   51.99    5.90
  -1   5  13   53.99    7.30
  -1   5  13   49.80    7.10
   0  -5  13  424.96   23.50
   0  -5  13  387.76   19.50
   0  -5  13  416.66   28.20
   0  -5 -13  374.16   19.60
   0  -5 -13  409.06   19.40
   0   5 -13  409.16   16.80
   0   5  13  407.16   18.10
   1  -5  13   18.80    5.20
  -1  -5 -13   26.20    6.10
   1  -5  13   28.70    6.60
  -1  -5 -13   22.30    5.00
  -1  -5 -13   29.40    6.10
  -1   5 -13   35.10    6.80
   1   5  13   26.20    8.00
  -1   5 -13   20.70    5.20
   2  -5  13    2.30    2.80
  -2  -5 -13    4.00    3.60
  -2  -5 -13    9.30    4.10
  -2  -5 -13    1.50    2.70
   2  -5  13    1.50    3.70
   2   5  13    5.90    3.50
  -2   5 -13    3.20    5.00
  -2   5 -13    4.60    3.60
  -3  -5 -13    0.60    3.30
  -3  -5 -13   -3.60    2.30
   3  -5  13    4.00    3.50
   3  -5  13   10.30    4.90
  -3  -5 -13    4.80    2.70
   3   5  13   -4.90    4.00
  -3   5 -13   -1.20    2.40
  -3   5 -13   -5.20    3.90
   3   5  13   -2.80    2.10
  -4  -5 -13   20.40    5.30
  -4  -5 -13   16.20    4.00
   4  -5  13   18.10    4.90
   4   5  13   29.90    5.20
  -4   5 -13   15.60    4.30
  -4   5 -13   31.10    6.00
   4  -6 -13    2.40    1.80
  -4  -6  13   -2.10    1.10
  -4   6  13   -0.20    1.10
   4   6 -13   -3.40    1.70
  -4   6  13   -4.10    3.00
   4   6 -13    0.40    2.90
   3  -6 -13    2.10    2.30
  -3  -6  13    1.60    2.00
   3  -6 -13    1.90    3.50
   3  -6 -13    6.30    3.20
  -3   6  13    5.80    2.90
   3   6 -13    5.40    3.00
  -2  -6  13   13.70    3.80
   2  -6 -13   22.70    5.30
   2  -6 -13   16.70    4.60
   2  -6 -13   13.10    3.90
   2   6 -13   15.70    4.50
  -2   6  13   19.70    4.30
   1  -6 -13    6.40    2.80
   1  -6 -13    3.00    2.40
  -1  -6  13    7.60    2.90
  -1   6  13   -2.20    2.90
   1   6 -13    2.90    2.60
  -1   6  13    2.50    3.30
  -1   6  13    1.00    2.80
   0  -6 -13   23.40    5.40
   0  -6 -13   38.80    6.20
   0   6 -13   30.90    4.90
   0   6  13   27.50    6.20
   1  -6  13  138.69   13.60
  -1  -6 -13  133.79   13.00
  -1  -6 -13  135.89   11.50
   1  -6  13  121.09   12.00
  -1  -6 -13  132.29   12.30
  -1   6 -13  130.79   10.00
   1   6  13  120.79   14.10
  -2  -6 -13  153.48   13.70
   2  -6  13  123.39   12.30
  -2  -6 -13  138.29   13.80
   2  -6  13  156.88   14.30
  -2  -6 -13  143.29   12.30
  -2   6 -13  139.89   11.10
   2   6  13  141.39   13.20
  -3  -6 -13    8.20    3.50
  -3  -6 -13   15.50    6.20
   3  -6  13    4.80    3.90
  -3  -6 -13    1.10    2.80
  -3   6 -13   17.50    4.50
  -3   6 -13    7.60    2.90
   3   6  13    7.70    3.70
   4  -6  13    1.30    2.00
  -4  -6 -13   -2.70    4.30
  -4  -6 -13   -1.10    1.40
   4   6  13   -0.80    1.30
  -4   6 -13    4.80    2.90
  -4   6 -13    1.10    2.30
   4  -7 -13    2.00    2.30
  -4  -7  13   -0.60    1.20
   4  -7 -13    1.40    1.50
  -4   7  13    0.00    2.70
   4   7 -13    1.90    2.10
  -4   7  13   -1.10    1.30
   4   7 -13    2.20    2.70
   3  -7 -13   12.30    3.80
   3  -7 -13    6.10    2.80
  -3  -7  13    2.90    1.90
   3   7 -13    3.00    2.90
  -3   7  13    3.30    2.40
  -3   7  13    2.60    2.20
   2  -7 -13    1.30    2.50
   2  -7 -13    2.00    2.70
   2  -7 -13    3.10    4.10
   2   7 -13    1.80    2.30
  -2   7  13   -0.50    2.20
   1  -7 -13   12.80    4.20
   1  -7 -13    4.30    3.20
  -1  -7  13    6.40    2.90
  -1   7  13    9.50    3.50
   1   7 -13   11.50    3.60
  -1   7  13   10.60    4.10
   0  -7 -13   47.60    8.00
   0  -7 -13   44.90    7.50
   0  -7 -13   48.20    8.50
   0  -7 -13   36.50    6.40
   0   7 -13   38.60    5.70
   0   7  13   44.30    6.30
   1  -7  13   18.30    5.90
  -1  -7 -13   19.60    5.40
  -1  -7 -13   31.10    6.10
  -1  -7 -13   14.70    4.80
  -1  -7 -13   24.20    6.80
   1   7  13   14.40    7.00
  -1   7 -13   17.50    4.90
   1   7  13   17.60    5.00
  -2  -7 -13   21.00    6.50
  -2  -7 -13   29.50    7.40
   2  -7  13   13.10    4.90
  -2  -7 -13   18.40    5.00
  -2   7 -13   20.40    4.70
   2   7  13   14.10    4.70
  -3  -7 -13    2.50    4.80
  -3  -7 -13    3.00    3.20
   3  -7  13    1.20    2.60
  -3  -7 -13   -0.70    1.80
  -3   7 -13    2.60    2.00
  -3   7 -13   -3.60    3.00
   3  -8 -13    7.50    3.20
  -3   8  13    8.30    2.80
  -3   8  13   13.00    3.20
   3   8 -13    9.90    2.80
  -2  -8  13    6.70    2.30
   2  -8 -13    2.40    2.80
   2  -8 -13    0.90    2.90
  -2   8  13   17.60    3.90
  -2   8  13    3.40    2.10
   2   8 -13    8.00    3.40
   1  -8 -13   17.70    4.00
   1  -8 -13   18.00    5.00
  -1  -8  13   22.40    5.00
   1  -8 -13   15.50    4.90
   1   8 -13   22.00    4.70
  -1   8  13   20.90    4.20
   0  -8 -13    6.50    3.10
   0  -8 -13    9.20    3.80
   0  -8 -13   14.40    5.90
   0  -8 -13    8.70    3.50
   0   8 -13   13.30    3.80
   0   8  13   10.10    4.60
   0   8 -13    4.40    4.10
  -1  -8 -13   17.50    5.10
  -1  -8 -13   13.00    4.80
  -1  -8 -13    8.60    3.70
   1  -8  13   13.60    5.10
   1   8  13   11.20    3.90
   1   8  13    3.00    4.20
   1   8  13   10.80    4.10
  -1   8 -13   14.00    3.80
  -2  -8 -13   29.50    6.80
   2  -8  13   27.50    6.50
  -2  -8 -13   37.90    6.60
  -2  -8 -13   33.20    7.80
  -2  -8 -13   22.10    4.70
   2   8  13   32.00    5.40
  -2   8 -13   28.00    5.10
  -2   8 -13   31.50    7.20
   2   8  13   27.80    5.60
   3  -8  13    6.70    2.80
  -3  -8 -13    4.60    2.40
  -3   8 -13    5.30    2.30
   3   8  13   -0.40    2.00
   3  -9 -13   -1.00    1.70
   3  -9 -13    4.00    2.00
   3   9 -13    7.30    2.40
  -3   9  13    3.50    2.30
   2  -9 -13   -0.30    1.90
  -2   9  13   -0.30    2.00
   2   9 -13    2.50    2.30
   1  -9 -13   33.40    6.70
   1  -9 -13   29.10    5.60
   1   9 -13   32.40    5.10
  -1   9  13   43.60    5.30
   0  -9 -13   17.60    4.90
   0  -9 -13   14.70    4.60
   0  -9 -13   25.20    5.00
   0   9  13   16.60    5.60
   0   9 -13   23.30    4.60
  -1  -9 -13    2.90    3.60
  -1  -9 -13   -2.00    4.70
  -1  -9 -13    3.80    2.30
  -1   9 -13    9.10    3.70
   1   9  13   -0.90    2.30
  -1   9 -13    3.10    1.90
   1   9  13    1.30    4.10
  -2  -9 -13   -3.80    3.70
  -2  -9 -13    5.10    2.50
  -2   9 -13   -0.60    1.90
   2   9  13   -2.20    2.10
   2 -10 -13    5.30    2.30
  -2  10  13    1.60    2.00
   1 -10 -13    4.70    2.90
   1  10 -13    1.50    1.80
  -1  10  13    6.60    3.20
   0 -10 -13    3.90    2.10
   0 -10 -13    1.30    3.00
   0  10  13    0.10    1.80
   0  10  13    1.40    3.00
   0  10 -13   -3.40    1.80
  -1 -10 -13   -3.50    3.30
  -1 -10 -13    1.60    1.40
  -1  10 -13   -0.40    1.40
   1  10  13    4.10    3.00
   5   0 -14    0.90    1.70
  -5   0  14    1.70    1.10
   4   0 -14   43.00    7.10
  -4   0  14   45.50    6.60
   4   0 -14   41.90    6.60
  -4   0  14   50.49    6.70
  -3   0  14    4.70    3.10
   3   0 -14    2.90    2.10
  -3   0  14    5.30    3.00
   3   0 -14   -0.30    2.60
   2   0 -14   23.30    4.40
  -2   0  14   29.20    5.30
  -2   0  14   31.90    4.50
  -2   0  14   23.20    5.40
  -1   0  14   -2.40    1.40
   0   0 -14 1596.14   46.40
   0   0  14 1618.44   47.20
   1   0  14    2.80    2.00
  -1   0 -14   -0.90    1.60
   2   0  14   10.00    3.50
   2   0  14   15.20    4.80
   2   0  14   12.50    4.80
  -2   0 -14    8.30    3.80
  -2   0 -14    9.20    3.20
  -2   0 -14    7.90    2.70
   2   0  14   22.10    6.90
  -2   0 -14    5.00    2.90
   3   0  14    1.30    2.40
  -3   0 -14    3.90    4.50
  -3   0 -14    6.50    4.40
   3   0  14   15.60    7.50
   3   0  14    2.70    2.70
  -3   0 -14    0.50    2.40
   4   0  14   54.69    9.00
   4   0  14   67.59    8.10
  -4   0 -14   57.99    8.20
  -4   0 -14   56.99    8.10
  -5   0 -14   -1.40    2.00
  -5   0 -14    0.20    2.20
  -5  -1  14    1.70    1.60
  -5   1  14    0.00    1.20
  -5   1  14   -1.90    2.10
   4  -1 -14    1.00    2.30
   4  -1 -14    1.90    2.30
  -4  -1  14   -3.60    2.70
  -4  -1  14   -1.50    1.70
   4   1 -14    0.30    2.40
  -4   1  14    0.70    1.30
  -4   1  14    0.50    2.10
   4   1 -14    2.20    2.30
   3  -1 -14   66.39    8.00
  -3  -1  14   69.99    8.60
  -3  -1  14   59.59    7.30
  -3  -1  14   58.59    7.30
   3  -1 -14   53.29    7.40
   3   1 -14   65.69    8.00
   3   1 -14   64.19    7.80
  -3   1  14   67.89    8.80
  -3   1  14   60.69    7.40
  -2  -1  14  752.52   28.60
  -2  -1  14  685.13   26.90
  -2  -1  14  723.93   25.40
   2  -1 -14  730.63   26.70
   2   1 -14  719.23   26.10
  -2   1  14  731.23   26.20
  -2   1  14  769.82   29.20
  -2   1  14  707.03   28.30
  -1  -1  14   -0.10    1.50
  -1   1  14   -1.10    1.10
   0  -1  14  249.08   12.70
   0  -1 -14  255.27   13.10
   0   1 -14  242.68   11.90
   0   1  14  237.38   12.90
  -1  -1 -14  292.47   15.70
   1  -1  14  302.47   14.80
  -1   1 -14  283.57   13.10
   1   1  14  292.77   15.70
  -1   1 -14  307.97   15.60
  -2  -1 -14  457.75   22.50
   2  -1  14  456.85   23.50
   2  -1  14  444.96   23.40
  -2  -1 -14  465.95   24.00
   2  -1  14  465.05   23.00
   2  -1  14  484.95   28.80
  -2  -1 -14  453.95   20.40
   2   1  14  448.86   22.90
   2   1  14  459.15   28.10
  -2   1 -14  459.15   19.40
  -2   1 -14  431.56   18.60
   2   1  14  390.76   21.30
   2   1  14  452.75   23.00
  -2   1 -14  447.26   20.40
  -2   1 -14  481.05   23.90
  -3  -1 -14   66.39    9.10
   3  -1  14   63.49    9.40
  -3  -1 -14   69.19    9.50
   3  -1  14   72.59    8.80
   3  -1  14   63.39   15.40
  -3  -1 -14   81.39    9.40
   3   1  14   72.79   11.70
  -3   1 -14   49.40    8.60
   3   1  14   70.09    8.80
   3   1  14   58.09    8.40
  -3   1 -14   60.89    8.10
  -3   1 -14   64.69    9.70
  -4  -1 -14   44.10    6.70
  -4  -1 -14   37.10    6.50
   4  -1  14   36.50    7.00
   4  -1  14   35.80    6.90
  -4  -1 -14   33.90    8.20
   4   1  14   34.20    5.80
   4   1  14   42.90    7.70
  -4   1 -14   43.60    6.90
  -4   1 -14   34.90    6.00
  -5  -1 -14   -0.20    1.80
  -5  -1 -14    5.70    3.00
  -5   1 -14    5.20    2.70
  -5   1 -14   -0.10    2.00
   5  -2 -14    3.00    2.40
  -5  -2  14   -0.40    1.00
  -5   2  14    0.90    1.30
  -5   2  14    0.60    1.40
   5   2 -14   -0.40    1.50
  -4  -2  14   15.60    4.00
   4  -2 -14   17.90    5.10
  -4   2  14   30.60    5.50
   4   2 -14   18.40    5.00
   4   2 -14   25.40    5.90
  -3  -2  14    2.80    1.90
  -3  -2  14    6.70    3.90
  -3  -2  14    3.20    3.00
   3  -2 -14    6.40    2.90
   3  -2 -14    6.80    3.00
  -3   2  14    2.10    6.50
   3   2 -14    3.10    3.00
  -3   2  14    2.60    2.00
   3   2 -14    8.20    3.50
  -3   2  14    8.00    3.90
   2  -2 -14   -2.00    2.50
  -2  -2  14    3.70    3.30
  -2  -2  14    0.00    1.60
  -2  -2  14    2.00    2.20
   2  -2 -14    4.40    2.00
   2   2 -14    1.20    2.20
  -2   2  14    4.20    2.70
  -2   2  14    0.40    1.70
  -2   2  14    2.70    5.10
   1  -2 -14  144.89    9.30
   1  -2 -14  152.28   10.40
  -1  -2  14  144.29    9.50
  -1   2  14  138.39    9.90
   0  -2  14  945.91   30.80
   0  -2 -14  995.70   33.00
   0   2  14  959.40   32.40
   0   2 -14  969.60   28.90
   0   2 -14  990.40   29.40
   1  -2  14   41.50    6.00
   1  -2  14   46.80    8.30
  -1  -2 -14   52.49    6.40
  -1  -2 -14   42.70    6.40
   1  -2  14   65.49    7.50
   1   2  14   53.89    6.20
   1   2  14   55.69    6.90
  -1   2 -14   65.39    5.50
  -1   2 -14   47.80    5.70
  -1   2 -14   45.90    4.60
   2  -2  14  170.08   13.60
  -2  -2 -14  113.79   12.30
   2  -2  14  130.59   14.70
   2  -2  14  154.18   12.40
  -2  -2 -14  127.39   10.60
   2  -2  14  150.58   16.20
  -2  -2 -14  156.28   13.50
  -2   2 -14  170.28   13.10
   2   2  14  141.69   15.60
   2   2  14  152.08   12.80
  -2   2 -14  158.68   10.60
   2   2  14  135.09   11.30
   2   2  14  164.88   12.90
  -3  -2 -14    1.60    4.10
   3  -2  14   -1.30    2.00
   3  -2  14    8.30    3.80
  -3  -2 -14    0.10    3.70
  -3  -2 -14    6.80    3.70
   3   2  14    5.00    3.40
  -3   2 -14    2.80    3.10
   3   2  14    9.80    4.30
   4  -2  14    4.20    3.40
   4  -2  14    3.10    4.10
  -4  -2 -14   10.00    3.70
  -4  -2 -14    6.20    3.10
  -4  -2 -14    7.50    5.40
   4   2  14    6.70    3.20
  -4   2 -14   16.50    4.50
  -4   2 -14    7.30    3.20
   4   2  14    9.70    3.90
   5  -3 -14   -0.80    1.80
   5  -3 -14   -6.70    6.20
  -5   3  14    0.20    0.90
  -5   3  14    0.70    1.40
   5   3 -14    3.90    1.80
   4  -3 -14    4.00    2.80
   4  -3 -14    3.80    2.50
  -4  -3  14   -0.50    1.60
  -4   3  14    4.00    3.00
   4   3 -14    7.50    3.40
   4   3 -14    2.70    2.60
   3  -3 -14  126.69   11.00
  -3  -3  14  125.69   10.10
   3  -3 -14  122.09   11.40
  -3  -3  14  107.79   11.30
  -3   3  14  113.89   10.10
  -3   3  14  127.19   11.00
  -3   3  14   94.09   13.10
  -3   3  14  121.89   11.90
   3   3 -14  120.69   10.60
   2  -3 -14   22.80    5.00
   2  -3 -14   22.30    5.00
  -2  -3  14   23.50    4.60
  -2  -3  14   15.70    5.00
  -2  -3  14   23.40    4.50
  -2   3  14   22.40    4.40
   2   3 -14   21.50    4.40
  -2   3  14   26.70    5.10
  -1  -3  14    0.60    3.50
  -1  -3  14    1.10    1.70
   1  -3 -14    1.00    1.90
   1  -3 -14    1.50    2.30
  -1   3  14    8.10    2.50
   0  -3 -14   57.79    6.40
   0  -3  14   49.30    4.90
   0  -3 -14   35.00    5.20
   0   3 -14   47.80    4.30
   0   3 -14   50.79    4.60
   0   3  14   39.10    5.40
   0   3 -14   52.29    4.80
   1  -3  14  141.19   11.80
   1  -3  14  151.98   11.00
  -1  -3 -14  143.79   11.60
  -1  -3 -14  144.79   10.10
   1  -3  14  142.79   11.90
   1  -3  14  153.28   15.40
  -1   3 -14  152.98   10.60
   1   3  14  155.88   11.00
   1   3  14  141.39   11.70
   1   3  14  152.48   14.70
   1   3  14  138.39   11.60
  -2  -3 -14  210.38   17.10
   2  -3  14  212.38   15.90
  -2  -3 -14  221.28   15.00
   2  -3  14  198.48   14.70
   2  -3  14  231.38   21.10
  -2  -3 -14  217.18   14.60
   2   3  14  242.58   19.30
  -2   3 -14  205.98   12.60
   2   3  14  198.58   15.10
   2   3  14  180.38   17.50
  -2   3 -14  213.88   15.20
   2   3  14  211.58   15.30
  -3  -3 -14   73.69    9.80
   3  -3  14   72.39   10.40
  -3  -3 -14   75.09   10.00
  -3  -3 -14   82.09   11.30
   3  -3  14   76.99    9.60
  -3   3 -14   84.19    8.80
   3   3  14   76.19   10.40
   3   3  14   86.29   10.10
  -4  -3 -14   18.60    5.10
   4  -3  14   23.20    6.30
  -4  -3 -14   23.80    7.00
  -4  -3 -14   22.80    5.30
   4  -3  14   17.50    5.00
  -4   3 -14   23.20    5.30
  -4   3 -14   33.00    6.00
   4   3  14   15.40    5.20
   4   3  14   25.90    5.30
  -4  -4  14    0.40    1.70
   4  -4 -14    0.10    4.80
   4  -4 -14    3.10    2.40
   4  -4 -14    8.90    3.50
   4   4 -14    8.60    3.50
   4   4 -14    7.50    3.30
  -4   4  14    3.30    2.00
  -3  -4  14   28.10    7.40
   3  -4 -14   51.79    7.30
   3  -4 -14   43.30    6.90
  -3  -4  14   37.80    6.00
   3  -4 -14   28.80    8.10
  -3   4  14   40.90    8.10
  -3   4  14   48.10    7.10
   3   4 -14   47.70    7.20
  -3   4  14   39.10    7.00
  -2  -4  14   58.19    7.40
   2  -4 -14   77.49    8.10
  -2  -4  14   66.99    7.00
   2  -4 -14   62.59    8.00
  -2   4  14   60.59    7.70
  -2   4  14   79.39    8.10
   2   4 -14   69.79    7.20
  -2   4  14   64.29    8.00
   1  -4 -14  293.57   18.90
   1  -4 -14  219.28   14.50
   1  -4 -14  246.78   14.20
  -1  -4  14  249.58   12.10
   1   4 -14  234.58   12.60
  -1   4  14  239.08   14.10
  -1   4  14  249.68   13.90
   0  -4 -14  129.69    9.30
   0  -4  14  141.79   13.90
   0  -4  14  117.39    7.80
   0  -4  14  118.69   10.00
   0  -4  14  125.29   11.40
   0  -4 -14  125.49   12.60
   0  -4 -14  124.59   10.40
   0   4  14  120.79    9.10
   0   4  14  151.58   14.50
   0   4 -14  121.69    7.20
  -1  -4 -14  419.36   22.00
   1  -4  14  477.55   29.30
  -1  -4 -14  432.26   20.30
   1  -4  14  437.26   22.00
   1  -4  14  447.66   23.20
   1  -4  14  424.66   21.70
   1   4  14  436.26   26.80
  -1   4 -14  461.25   20.70
   1   4  14  431.46   22.90
   1   4  14  437.86   21.80
  -2  -4 -14   44.80    7.00
   2  -4  14   41.90    6.80
  -2  -4 -14   27.70    7.40
   2  -4  14   36.90    7.30
  -2  -4 -14   33.00    7.50
   2   4  14   33.50    9.80
  -2   4 -14   32.10    5.80
  -2   4 -14   37.20    8.10
   2   4  14   47.30    7.80
   2   4  14   41.50    7.10
  -3  -4 -14   55.99    8.10
   3  -4  14   40.60    8.40
  -3  -4 -14   46.90    8.00
   3  -4  14   66.69    9.60
  -3  -4 -14   43.70    8.70
   3   4  14   51.39    9.20
  -3   4 -14   56.39    7.40
   3   4  14   47.80    7.80
   4  -4  14    0.90    2.20
  -4  -4 -14    2.90    2.60
  -4  -4 -14   -0.90    2.70
   4   4  14    0.20    1.50
  -4   4 -14   -1.20    1.90
  -4   4 -14   -3.70    3.10
  -4  -5  14    4.50    1.80
   4  -5 -14   11.10    4.10
   4  -5 -14    5.60    2.50
  -4   5  14   -5.90    6.50
   4   5 -14    3.40    2.80
  -4   5  14    4.90    2.60
   4   5 -14   -0.70    2.40
   3  -5 -14   19.30    5.40
   3  -5 -14    8.80    5.00
  -3  -5  14    9.00    3.10
   3  -5 -14   13.90    3.90
  -3   5  14    3.60    3.30
   3   5 -14   15.00    4.70
   2  -5 -14    0.20    5.90
   2  -5 -14   -0.10    2.00
   2  -5 -14    1.40    3.00
  -2  -5  14    1.30    2.10
  -2   5  14   -5.00    3.40
  -2   5  14   -1.90    2.70
   2   5 -14   -0.80    2.10
   1  -5 -14    1.70    2.00
  -1  -5  14   -3.50    2.90
   1  -5 -14   -0.10    2.60
  -1   5  14    0.40    2.50
  -1   5  14    3.20    3.70
  -1   5  14   -3.70    1.80
   0  -5 -14   62.49    7.30
   0  -5  14   65.69    9.70
   0  -5  14   74.29    8.80
   0  -5  14   65.59   15.20
   0  -5 -14   56.69    7.60
   0   5  14   50.29    6.50
   0   5  14   59.69   10.30
   0   5  14   60.29    7.80
   1  -5  14   10.70    4.30
  -1  -5 -14   11.10    4.60
  -1  -5 -14    5.10    2.90
  -1  -5 -14    1.40    3.40
   1  -5  14    7.00    3.90
  -1   5 -14    2.30    4.20
  -1   5 -14   -2.30    3.80
   1   5  14   -1.50    5.30
   1   5  14    9.10    3.10
   1   5  14   -0.10    2.80
  -2  -5 -14   18.80    6.00
  -2  -5 -14   24.30    6.80
  -2  -5 -14   32.60    6.30
   2  -5  14   33.00    7.10
   2  -5  14   36.20    7.50
   2   5  14   32.30    6.50
  -2   5 -14   36.80    6.40
   2   5  14   39.10    7.90
  -3  -5 -14   -3.90    2.10
  -3  -5 -14    5.20    3.10
   3  -5  14   -1.40    3.70
  -3  -5 -14   -3.60    2.90
   3  -5  14   -1.10    2.70
   3   5  14    4.20    2.80
   3   5  14    6.80    4.40
  -3   5 -14   -0.60    2.00
  -4  -5 -14   12.70    3.10
   4  -5  14    7.30    3.00
  -4  -5 -14   11.80    3.50
  -4   5 -14    7.30    3.10
  -4   5 -14    7.10    3.50
   4   5  14    9.20    2.90
   4  -6 -14    1.50    1.80
   4  -6 -14    9.80    4.00
  -4  -6  14   -0.80    1.30
   4   6 -14    0.00    1.90
  -4   6  14    2.50    1.80
   4   6 -14   -2.40    2.30
   3  -6 -14   11.90    4.50
   3  -6 -14    3.60    2.80
  -3  -6  14    6.20    2.40
   3  -6 -14   13.20    3.50
  -3   6  14    9.70    3.40
  -3   6  14    8.70    3.40
   3   6 -14   10.90    3.60
   2  -6 -14   51.09    8.00
   2  -6 -14   48.60    7.20
   2  -6 -14   39.90    7.90
  -2  -6  14   48.20    6.10
  -2   6  14   52.29    7.10
  -2   6  14   42.20    6.60
   2   6 -14   46.70    6.70
   1  -6 -14   48.10    8.80
  -1  -6  14   59.19    6.80
   1  -6 -14   66.59    8.10
   1  -6 -14   62.59    7.80
   1   6 -14   55.89    6.90
  -1   6  14   57.89    7.70
  -1   6  14   56.99    7.20
  -1   6  14   66.89    7.60
   0  -6 -14   57.49    7.50
   0  -6 -14   39.60    6.90
   0   6  14   43.80    9.20
   0   6 -14   48.10    6.10
  -1  -6 -14   61.99    8.80
  -1  -6 -14   76.89    9.60
  -1  -6 -14   47.60    7.30
   1  -6  14   65.89    9.90
   1  -6  14   57.59    8.90
  -1   6 -14   69.79    7.30
   1   6  14   65.19   10.70
   1   6  14   60.19    8.50
   1   6  14   59.99    8.10
   2  -6  14   -1.60    3.20
   2  -6  14    3.40    3.80
  -2  -6 -14    0.50    2.50
  -2  -6 -14    2.40    2.70
  -2  -6 -14   -0.80    2.80
   2   6  14   -2.00    2.20
  -2   6 -14   -3.10    2.60
   2   6  14    1.50    2.40
  -3  -6 -14   13.70    5.30
  -3  -6 -14   20.90    5.20
   3  -6  14   19.80    5.70
  -3  -6 -14   30.80    6.10
   3   6  14   14.00    4.50
   4  -6  14    3.30    2.50
  -4  -6 -14   -0.90    1.60
  -4   6 -14    0.30    1.70
   4   6  14   -1.90    1.50
   4  -7 -14    2.00    1.90
  -4   7  14   -2.10    1.10
   4   7 -14   -1.00    2.30
   4   7 -14   -1.00    1.70
   3  -7 -14   -4.60    2.70
   3  -7 -14   -0.70    1.70
  -3  -7  14    0.60    1.40
  -3   7  14    0.80    2.80
   3   7 -14    1.70    2.40
  -3   7  14    2.20    2.00
   2  -7 -14   -1.30    4.10
   2  -7 -14   -0.20    2.70
   2  -7 -14   -2.40    2.60
  -2  -7  14    2.50    2.20
  -2   7  14   -1.50    2.40
   2   7 -14    3.80    2.30
  -2   7  14   -0.80    2.80
   1  -7 -14    4.10    2.90
   1  -7 -14    8.90    4.30
  -1   7  14    3.40    3.30
  -1   7  14   -3.40    3.40
   1   7 -14    3.40    2.80
   0  -7 -14    4.80    2.70
   0  -7 -14    4.90    3.30
   0  -7 -14   17.80    5.30
   0  -7 -14    3.40    2.90
   0   7  14   10.50    4.50
   0   7 -14    9.00    3.30
  -1  -7 -14   15.10    4.80
   1  -7  14    6.30    4.40
  -1  -7 -14   11.40    4.10
  -1  -7 -14    4.60    4.20
   1   7  14    9.70    3.90
  -1   7 -14   11.90    3.60
   1   7  14    7.60    4.90
   1   7  14   13.50    5.00
   2  -7  14   23.90    6.30
  -2  -7 -14   15.00    5.10
  -2  -7 -14   28.00    6.70
   2   7  14   34.80    7.00
   2   7  14   25.40    5.80
  -2   7 -14   23.30    4.80
   3  -7  14   -1.60    2.20
  -3  -7 -14   -0.20    2.60
  -3  -7 -14    1.00    1.80
   3   7  14    2.00    1.50
   3  -8 -14    1.20    1.90
   3  -8 -14    2.20    2.60
  -3   8  14    3.30    2.60
  -3   8  14    1.00    2.40
   3   8 -14    4.00    2.40
   2  -8 -14    8.30    4.70
   2  -8 -14    7.80    3.90
   2  -8 -14    6.80    3.10
  -2   8  14   10.00    2.90
  -2   8  14   13.60    4.10
   1  -8 -14   31.60    8.00
   1  -8 -14   50.69    7.60
   1  -8 -14   54.19    6.80
   1  -8 -14   57.09    8.90
   1   8 -14   52.19    7.00
  -1   8  14   48.50    6.30
   0  -8 -14   14.30    5.00
   0  -8 -14   17.70    5.10
   0  -8 -14   17.00    5.80
   0  -8 -14    9.20    3.80
   0   8  14    8.60    4.80
   0   8 -14   14.80    4.00
  -1  -8 -14   71.79    7.80
  -1  -8 -14   49.30   10.70
  -1  -8 -14   69.49    8.80
  -1  -8 -14   51.19    8.40
   1  -8  14   50.99    9.10
  -1   8 -14   60.79    7.10
   1   8  14   69.89    8.70
   1   8  14   59.79    7.90
   1   8  14   52.19    8.70
   2  -8  14    1.50    2.50
  -2  -8 -14   -0.60    1.80
  -2  -8 -14    0.70    2.60
   2   8  14    7.40    3.80
  -2   8 -14    1.40    2.10
   2   8  14   -1.10    2.00
  -3  -8 -14    4.10    2.20
   3  -8  14   -0.10    1.90
  -3   8 -14    5.30    2.40
   3   8  14    2.80    2.20
   2  -9 -14    6.90    3.40
   2  -9 -14   10.40    3.40
  -2   9  14    3.70    3.00
   2   9 -14   10.60    3.50
   1  -9 -14   -0.20    2.30
   1  -9 -14    4.30    3.50
  -1   9  14    2.40    3.20
   1   9 -14    3.90    2.40
   0  -9 -14    5.30    3.40
   0  -9 -14    2.50    2.10
   0  -9 -14    8.90    4.40
   0   9  14    5.80    3.50
   0   9 -14    4.20    2.30
  -1  -9 -14   11.20    4.90
  -1  -9 -14   14.00    4.90
  -1  -9 -14   12.90    4.00
   1   9  14   10.90    3.30
   1   9  14   -1.20    5.40
  -1   9 -14   15.80    3.70
  -2  -9 -14   10.40    3.40
  -2   9 -14    8.00    2.40
   2   9  14    8.50    3.60
   1 -10 -14   -2.70    2.30
   1 -10 -14   -0.20    1.90
   1  10 -14   -0.50    1.70
  -1  10  14    1.00    2.00
   0 -10 -14    2.30    2.80
   0 -10 -14    2.50    1.90
   0  10  14    1.00    2.60
   0  10 -14    5.20    2.20
   0  10  14   -2.30    1.80
  -1 -10 -14    1.60    3.60
  -1 -10 -14    3.90    2.20
   1  10  14   -2.30    3.00
  -1  10 -14    3.80    2.10
  -5   0  15    4.90    1.80
   5   0 -15    4.40    2.40
   4   0 -15    1.60    2.70
   4   0 -15    2.20    2.00
  -4   0  15   -1.00    1.90
  -4   0  15   -3.80    1.90
  -3   0  15   14.20    4.40
  -3   0  15   33.20    5.50
   3   0 -15   17.90    4.60
  -3   0  15   29.60    6.30
   3   0 -15   26.10    5.30
  -2   0  15   -0.80    2.30
  -2   0  15    2.20    2.10
   2   0 -15   -3.20    1.90
  -2   0  15    1.80    1.90
  -1   0  15    3.90    1.80
   0   0 -15   -1.70    1.40
   0   0  15    1.40    1.60
   1   0  15  234.98   13.50
   1   0  15  202.28   14.10
   1   0  15  203.48   17.40
  -1   0 -15  215.98   12.70
   1   0  15  192.58   15.70
   1   0  15  211.88   14.40
  -2   0 -15   -3.80    2.40
   2   0  15   -1.40    2.30
  -2   0 -15    7.90    3.90
   2   0  15    6.00    4.10
   2   0  15    0.00    2.70
  -2   0 -15   -2.10    2.70
  -2   0 -15    2.90    2.70
   3   0  15   25.50    9.90
  -3   0 -15   20.10    5.20
   3   0  15   27.70    6.50
  -3   0 -15   21.80    6.80
   3   0  15   21.00    5.90
  -3   0 -15   17.80    5.00
   4   0  15    4.40    3.30
   4   0  15   -3.40    2.30
   5  -1 -15   -2.10    1.40
  -5  -1  15    0.10    0.90
  -5   1  15   -0.30    1.10
  -5   1  15    2.60    1.70
   5   1 -15    0.90    1.50
  -4  -1  15   -1.10    2.80
   4  -1 -15   -3.00    2.10
  -4  -1  15   -1.30    1.60
   4  -1 -15    0.30    1.70
  -4   1  15    1.80    2.10
   4   1 -15    0.50    2.10
   4   1 -15    4.20    2.60
  -4   1  15    3.50    2.60
   3  -1 -15   94.29    9.70
  -3  -1  15   85.59    9.70
   3  -1 -15   94.49    9.50
  -3  -1  15   88.79    8.90
  -3  -1  15   95.69    8.50
  -3   1  15   93.89   10.40
   3   1 -15   80.69    9.20
  -3   1  15   77.89    8.80
  -3   1  15   85.19    8.50
   3   1 -15   91.39    9.10
  -2  -1  15    5.90    2.50
  -2  -1  15    3.50    2.00
   2  -1 -15    4.90    3.70
  -2  -1  15   10.20    3.50
   2  -1 -15    7.00    2.90
  -2   1  15    7.20    2.40
   2   1 -15   12.70    3.30
  -2   1  15   10.50    3.80
  -2   1  15    0.70    5.90
  -2   1  15   13.00    3.90
   1  -1 -15  999.10   32.30
  -1  -1  15 1059.69   35.20
   1  -1 -15 1099.09   36.20
  -1   1  15 1096.79   36.20
   0  -1  15   18.80    3.70
   0  -1 -15   23.80    4.80
   0   1 -15   17.60    3.30
   0   1 -15   12.00    2.80
   0   1  15   19.20    3.80
   1  -1  15   50.49    7.20
   1  -1  15   43.90    6.20
  -1  -1 -15   45.80    6.20
   1  -1  15   56.39    7.30
   1  -1  15   55.69    6.10
   1  -1  15   60.19    9.40
   1   1  15   66.89    7.80
  -1   1 -15   51.19    6.60
   1   1  15   67.59    9.80
  -1   1 -15   46.60    5.60
   1   1  15   56.59    6.70
   1   1  15   53.69    7.10
  -2  -1 -15   21.50    5.70
   2  -1  15   20.20    5.60
  -2  -1 -15   25.50    5.50
   2  -1  15   26.60    7.90
   2  -1  15   25.30    7.00
   2  -1  15   25.20    5.80
   2   1  15   21.30    7.80
  -2   1 -15   15.20    4.90
   2   1  15   23.00    5.70
  -2   1 -15   20.60    5.20
   2   1  15   23.20    6.10
   2   1  15   23.80    5.80
  -2   1 -15   24.40    5.70
   3  -1  15  348.47   28.30
   3  -1  15  367.96   21.30
  -3  -1 -15  370.46   22.70
   3  -1  15  379.36   23.00
  -3  -1 -15  353.86   20.30
  -3  -1 -15  382.96   20.30
  -3   1 -15  358.86   19.20
   3   1  15  306.47   23.80
   3   1  15  378.56   22.10
   3   1  15  361.36   21.90
   4  -1  15    3.00    2.50
  -4  -1 -15   -0.70    8.40
  -4  -1 -15    5.60    2.90
   4   1  15    1.40    2.30
   4   1  15   -3.50    2.40
  -5  -2  15    1.30    1.20
  -5   2  15    1.90    1.50
   5   2 -15    0.60    1.90
  -5   2  15    3.50    1.50
  -4  -2  15    0.20    1.60
   4  -2 -15    0.80    2.00
   4  -2 -15    1.00    3.00
   4   2 -15   -0.10    2.30
  -4   2  15    1.90    2.10
   4   2 -15    3.00    2.80
  -4   2  15    2.10    2.00
  -3  -2  15    8.50    4.10
  -3  -2  15    3.20    3.70
   3  -2 -15    0.90    2.40
  -3  -2  15    3.10    2.50
   3  -2 -15    5.40    2.80
  -3   2  15    0.50    6.50
  -3   2  15    2.40    2.10
  -3   2  15   -4.50    3.20
   3   2 -15    3.20    2.50
  -2  -2  15   33.20    5.60
  -2  -2  15   32.70    5.00
   2  -2 -15   24.00    5.30
  -2  -2  15   31.00    4.80
   2  -2 -15   20.60    4.50
  -2   2  15   25.80    5.00
  -2   2  15   20.30    7.10
   2   2 -15   24.90    5.10
  -2   2  15   31.30    5.80
  -2   2  15   30.60    5.00
   1  -2 -15    3.90    2.80
  -1  -2  15    5.50    2.30
   1  -2 -15    0.90    2.00
  -1   2  15    7.90    3.10
  -1   2  15   -3.40    3.60
  -1   2  15    1.00    2.80
   0  -2 -15    2.80    2.70
   0  -2  15    1.00    1.70
   0  -2 -15    4.00    2.20
   0   2  15    1.90    1.90
   0   2 -15    4.10    1.80
   0   2 -15    5.10    1.90
   1  -2  15  384.76   20.00
   1  -2  15  344.67   18.10
   1  -2  15  373.16   24.80
  -1  -2 -15  377.46   19.30
  -1  -2 -15  364.56   16.60
   1  -2  15  380.96   19.70
  -1   2 -15  348.17   15.50
   1   2  15  368.56   24.10
  -1   2 -15  365.96   14.60
  -1   2 -15  364.76   17.60
   1   2  15  398.86   18.90
   1   2  15  388.26   19.60
  -2  -2 -15  124.49   12.80
   2  -2  15  102.09   11.30
  -2  -2 -15  119.29   10.20
   2  -2  15  147.09   15.90
  -2  -2 -15   84.89   12.00
   2  -2  15  135.69   12.00
   2  -2  15  105.79   15.50
  -2   2 -15  109.79   11.50
   2   2  15  116.99   10.80
   2   2  15  123.99   11.60
   2   2  15  134.89   12.10
  -2   2 -15  126.49   10.00
   2   2  15  130.49   14.90
  -3  -2 -15    4.20    3.60
   3  -2  15    5.30    3.20
  -3  -2 -15    8.70    3.30
  -3  -2 -15   -0.10    3.00
  -3   2 -15    6.60    3.30
   3   2  15    1.00    2.50
   3   2  15   -1.50    2.80
   4  -2  15    1.00    2.30
  -4  -2 -15    2.10    2.50
  -4  -2 -15    8.30    6.80
  -4  -2 -15   -3.80    2.20
   4  -2  15    0.20    3.90
   4   2  15   -1.60    1.90
   4   2  15    1.10    3.40
  -4   2 -15    1.00    3.00
  -5  -3  15    0.50    0.90
   5  -3 -15    2.20    1.80
   5   3 -15   -0.80    1.80
  -5   3  15    0.10    0.90
   4  -3 -15    5.20    3.20
  -4  -3  15    4.80    2.30
   4  -3 -15    4.50    2.90
   4   3 -15    4.00    2.70
  -4   3  15    3.70    2.50
  -4   3  15    2.30    2.30
   4   3 -15   13.10    3.80
  -3  -3  15   85.79   10.70
   3  -3 -15   88.79   10.00
   3  -3 -15   90.89    9.50
  -3  -3  15   92.69    8.10
  -3   3  15   98.69   10.80
  -3   3  15   72.29   11.50
  -3   3  15   89.29    9.20
   3   3 -15   92.19    9.40
  -2  -3  15   78.59    7.00
   2  -3 -15   84.49    8.50
  -2  -3  15   74.79    8.90
  -2  -3  15   72.89    7.70
   2  -3 -15   70.29    8.30
  -2   3  15   75.79    8.50
   2   3 -15   83.49    7.50
  -2   3  15   83.59    8.20
  -1  -3  15  154.28   12.90
   1  -3 -15  152.58   10.50
  -1  -3  15  160.28    9.90
   1  -3 -15  164.08   11.90
  -1  -3  15  148.79   11.30
  -1   3  15  157.98   15.50
  -1   3  15  171.28   11.20
  -1   3  15  156.18   10.90
   0  -3 -15  228.68   14.10
   0  -3  15  214.08   13.40
   0  -3  15  218.98   11.60
   0  -3  15  225.28   15.30
   0  -3 -15  217.68   12.30
   0  -3  15  206.78   17.40
   0   3  15  233.88   18.20
   0   3 -15  235.88   10.50
   0   3  15  228.88   13.30
   0   3  15  192.88   15.60
   0   3 -15  241.88   10.10
  -1  -3 -15    6.10    2.80
   1  -3  15   -1.80    2.20
   1  -3  15   10.80    5.40
   1  -3  15   -1.30    2.10
   1  -3  15   -2.40    2.40
   1   3  15   -0.90    2.10
  -1   3 -15    6.00    3.30
   1   3  15   -0.20    3.70
   1   3  15    2.50    2.10
   1   3  15   -1.20    2.20
   1   3  15    3.10    4.60
   2  -3  15   36.20    7.60
   2  -3  15   29.90   10.10
  -2  -3 -15   32.10    6.70
   2  -3  15   33.50    7.20
  -2  -3 -15   23.10    6.50
  -2  -3 -15   30.00    6.60
   2   3  15   38.60    7.80
   2   3  15   26.50    6.30
  -2   3 -15   33.30    7.10
   2   3  15   35.70    7.40
   2   3  15   35.40    7.00
  -2   3 -15   46.70    7.50
  -3  -3 -15   13.90    5.20
   3  -3  15   13.90    4.80
  -3  -3 -15   13.20    6.10
  -3  -3 -15    9.20    4.40
   3  -3  15   16.30    4.60
   3   3  15   14.40    5.70
   3   3  15   15.30    5.30
  -3   3 -15   15.90    4.30
   4  -3  15   18.70    5.00
  -4  -3 -15   20.70    5.20
  -4  -3 -15   33.20    5.60
   4   3  15   26.10    5.30
  -4   3 -15   29.00    4.90
  -4   3 -15   25.20    4.90
   4   3  15   22.50    5.50
   4  -4 -15    8.90    4.80
   4  -4 -15    7.00    3.30
   4  -4 -15   -2.30    2.20
  -4   4  15    0.40    1.40
  -4   4  15    2.60    1.50
   4   4 -15    5.50    2.60
   4   4 -15    3.30    2.40
   3  -4 -15    0.00    2.10
  -3  -4  15    0.60    2.30
   3  -4 -15   -0.70    2.30
  -3  -4  15    9.20    6.60
  -3   4  15    1.30    2.10
  -3   4  15    0.10    4.50
  -3   4  15   -7.30    3.70
   3   4 -15    1.90    2.50
   2  -4 -15   84.69    8.80
   2  -4 -15   72.39    8.20
  -2  -4  15   88.09    8.50
  -2  -4  15   77.39    6.80
   2   4 -15   82.39    8.00
  -2   4  15   83.19    8.80
  -2   4  15   76.49    8.10
   1  -4 -15   32.50    5.70
  -1  -4  15   40.10    9.30
   1  -4 -15   49.30    7.00
  -1  -4  15   47.10    5.30
  -1  -4  15   25.90    5.90
  -1   4  15   43.20    6.10
   1   4 -15   42.40    6.80
  -1   4  15   33.50    5.30
   0  -4 -15   38.70    5.50
   0  -4  15   28.00    4.40
   0  -4  15   25.00    8.80
   0  -4  15   30.70    6.80
   0  -4 -15   36.20    7.20
   0  -4  15   40.00    6.40
   0   4  15   38.20    6.80
   0   4  15   33.40    7.80
   0   4  15   41.50    5.50
   1  -4  15  123.19   14.80
   1  -4  15  125.49   12.10
   1  -4  15  133.19   12.30
  -1  -4 -15  118.89   11.10
   1  -4  15  120.09   11.20
  -1  -4 -15  119.09    9.90
  -1   4 -15  131.69   10.70
   1   4  15  123.09   11.10
   1   4  15  117.49   13.30
   1   4  15  119.49   11.60
   1   4  15  118.19   11.70
  -2  -4 -15  253.47   19.50
  -2  -4 -15  245.58   17.00
  -2  -4 -15  259.27   16.70
   2  -4  15  240.08   16.90
   2  -4  15  231.78   17.00
   2   4  15  231.88   16.90
   2   4  15  213.08   19.30
  -2   4 -15  247.68   14.00
   2   4  15  239.68   17.20
  -2   4 -15  230.38   17.80
   3  -4  15    1.50    2.50
  -3  -4 -15    0.60    3.20
  -3  -4 -15   -3.50    2.20
  -3  -4 -15   -3.60    2.20
   3  -4  15   -3.40    3.00
   3   4  15    1.00    2.70
  -3   4 -15    5.60    3.40
   3   4  15   10.30    4.10
  -4  -4 -15   -0.20    3.00
  -4  -4 -15    7.00    2.70
   4  -4  15    6.40    3.20
  -4   4 -15    2.50    2.30
  -4   4 -15   -3.50    3.50
   4   4  15    2.60    2.30
   4  -5 -15    1.40    2.00
  -4  -5  15    2.70    1.60
   4  -5 -15   -1.00    4.50
   4   5 -15    1.50    2.70
  -4   5  15    2.10    2.20
   4   5 -15   -1.50    1.70
   3  -5 -15   32.10    7.30
   3  -5 -15   28.60    7.10
   3  -5 -15   27.90    5.40
  -3  -5  15   33.40    4.90
   3   5 -15   29.20    5.60
  -3   5  15   25.30    7.80
  -3   5  15   29.00    5.50
   2  -5 -15   34.50    6.20
  -2  -5  15   35.30    5.10
   2  -5 -15   45.50    6.90
  -2   5  15   32.50    6.50
  -2   5  15   47.00    6.40
   2   5 -15   31.90    5.60
   1  -5 -15   33.70    7.00
   1  -5 -15   43.70    6.50
  -1   5  15   54.39    6.80
   1   5 -15   31.90    6.10
  -1   5  15   35.80    5.80
   0  -5  15   47.30   13.80
   0  -5  15   52.89    7.60
   0  -5 -15   60.19    7.70
   0  -5  15   54.09    9.10
   0  -5 -15   54.99    6.90
   0   5  15   52.39    7.50
   0   5  15   54.09   10.00
   0   5  15   48.50    6.60
   1  -5  15   -1.00    3.30
  -1  -5 -15    3.60    3.10
   1  -5  15    5.80    3.40
   1   5  15   -0.20    1.90
   1   5  15   -2.20    4.60
  -1   5 -15    9.40    5.60
   1   5  15   -0.40    3.00
  -2  -5 -15   12.90    4.30
  -2  -5 -15   17.00    4.90
   2  -5  15    6.60    3.90
   2  -5  15   11.30    4.40
  -2   5 -15   13.10    3.90
   2   5  15    3.20    7.30
   2   5  15   15.10    4.80
   2   5  15   14.40    4.80
   3  -5  15   21.60    5.70
   3  -5  15    9.90    4.40
  -3  -5 -15   14.20    4.20
  -3  -5 -15   11.50    4.80
  -3  -5 -15   10.80    5.10
   3   5  15   19.40    5.50
   3   5  15   13.10    5.20
  -3   5 -15   10.10    3.20
  -4  -5 -15   11.00    3.80
  -4  -5 -15   13.30    3.50
   4  -5  15   10.50    3.40
  -4   5 -15   11.60    3.20
   4   5  15   11.40    3.30
   4  -6 -15    5.70    2.30
   4  -6 -15    4.80    3.60
   4   6 -15    3.90    2.10
  -4   6  15    3.30    1.90
   4   6 -15    2.80    2.60
   3  -6 -15   13.10    4.20
  -3  -6  15    9.80    2.60
   3  -6 -15   10.20    4.70
   3  -6 -15   12.40    3.90
   3   6 -15   11.30    3.50
  -3   6  15   19.90    6.50
  -3   6  15   18.40    5.00
   2  -6 -15   53.79    8.20
  -2  -6  15   50.69    5.90
   2  -6 -15   59.49    7.70
   2  -6 -15   74.19   11.20
   2   6 -15   49.90    6.60
  -2   6  15   47.20    6.80
   1  -6 -15   -3.30    2.30
   1  -6 -15   -0.10    2.20
  -1   6  15    9.20    4.50
  -1   6  15   -3.30    2.60
   1   6 -15    0.40    2.60
   0  -6 -15  112.39   10.40
   0  -6 -15  109.29   10.80
   0   6  15  105.49   13.90
   0   6 -15  109.99    8.80
  -1  -6 -15    7.30    4.60
  -1  -6 -15    6.70    3.40
  -1  -6 -15   10.60    4.00
   1  -6  15    8.50    4.30
   1  -6  15    6.90    4.20
  -1   6 -15    8.70    3.40
   1   6  15    6.30    3.90
   1   6  15    8.90    5.50
   1   6  15   12.50    4.40
  -2  -6 -15   29.10    7.90
   2  -6  15   56.29    8.40
  -2  -6 -15   47.80    7.10
   2  -6  15   41.90    8.30
  -2  -6 -15   46.90    8.20
  -2   6 -15   48.70    6.80
   2   6  15   38.30    7.70
   2   6  15   36.60    7.40
   3  -6  15    5.10    4.00
  -3  -6 -15   14.20    5.30
  -3  -6 -15    8.50    3.50
  -3  -6 -15   14.50    4.30
   3   6  15    7.80    4.40
   3   6  15   11.30    4.20
  -3   6 -15   10.50    3.40
  -4  -6 -15    6.00    2.30
   4  -6  15    2.90    2.20
   4   6  15    0.20    2.00
  -4   6 -15    4.10    2.20
   3  -7 -15    1.70    3.50
  -3   7  15    1.10    1.50
  -3   7  15    4.30    2.90
   3   7 -15   -2.50    1.80
   2  -7 -15    0.80    3.10
   2  -7 -15   -2.50    1.50
   2  -7 -15   -5.40    3.40
   2   7 -15    1.60    2.20
  -2   7  15   -1.60    3.30
  -2   7  15    6.00    3.30
   1  -7 -15   -1.40    3.80
   1  -7 -15    2.80    2.50
   1  -7 -15    1.30    2.40
  -1   7  15    6.70    3.50
   0  -7 -15  102.49   10.80
   0  -7 -15   94.59   11.50
   0  -7 -15  108.19   10.30
   0   7  15  129.19   14.80
   0   7 -15   96.29    8.90
  -1  -7 -15   24.60    6.80
  -1  -7 -15   16.40    5.10
  -1  -7 -15   15.10    4.70
   1  -7  15   23.50    6.10
   1   7  15   18.20    5.00
   1   7  15   16.30    6.80
   1   7  15   20.70    5.70
  -1   7 -15   19.90    4.30
   2  -7  15    9.50    4.00
  -2  -7 -15    7.80    4.60
  -2  -7 -15   10.00    4.40
  -2   7 -15   10.40    3.40
   2   7  15   13.20    3.90
   2   7  15    5.70    3.20
   3  -7  15    2.70    2.80
  -3  -7 -15    3.60    2.20
  -3  -7 -15    2.40    3.10
   3   7  15    0.40    1.90
  -3   7 -15   -0.60    2.00
   3  -8 -15    6.40    2.30
   3  -8 -15    1.70    2.80
  -3   8  15   -1.20    2.50
   3   8 -15    1.10    2.10
  -3   8  15   -0.30    2.50
   2  -8 -15   58.69    7.80
   2  -8 -15   34.50    7.40
   2  -8 -15   45.00    7.40
   2   8 -15   54.69    6.50
   1  -8 -15    7.40    5.50
   1  -8 -15   17.10    5.50
   1  -8 -15   10.60    3.50
   1  -8 -15    7.10    3.10
  -1   8  15    1.10    3.60
   1   8 -15    6.90    3.00
   0  -8 -15   11.10    5.10
   0  -8 -15    1.20    4.20
   0  -8 -15    1.20    2.60
   0   8 -15   -0.50    2.30
   0   8  15   -2.60    3.10
  -1  -8 -15   -1.20    2.20
   1  -8  15    4.70    4.20
  -1  -8 -15    5.60    3.70
  -1  -8 -15    0.50    2.40
  -1   8 -15   -3.10    1.90
   1   8  15   -0.10    4.10
   1   8  15    3.10    2.80
   1   8  15    3.90    3.80
  -2  -8 -15    4.10    2.80
  -2  -8 -15    1.50    2.70
   2  -8  15    0.10    2.60
   2   8  15    0.70    2.30
  -2   8 -15   -1.70    1.80
   2   8  15   -0.50    2.80
   3  -8  15    8.50    3.00
  -3  -8 -15    6.80    2.70
  -3   8 -15    3.40    2.00
   3   8  15    8.60    2.70
   2  -9 -15    7.30    2.80
   2  -9 -15    9.90    3.90
   2   9 -15    6.00    2.90
  -2   9  15   -0.30    3.20
   1  -9 -15    0.40    1.70
   1  -9 -15   -2.40    3.40
  -1   9  15    1.90    2.00
   1   9 -15   -0.20    2.30
   0  -9 -15    4.80    3.40
   0  -9 -15   12.10    3.80
   0  -9 -15   11.20    4.30
   0   9  15    9.30    4.10
   0   9 -15   15.10    3.60
  -1  -9 -15   -1.60    5.20
  -1  -9 -15    3.80    2.60
  -1  -9 -15   -1.80    4.00
  -1   9 -15    3.50    2.40
   1   9  15    2.10    2.60
  -2  -9 -15   17.90    3.90
   2   9  15   14.80    4.10
  -2   9 -15   18.20    4.00
   1 -10 -15    4.40    3.30
   1 -10 -15    2.10    2.10
   1  10 -15    6.60    2.20
  -1  10  15   -0.80    1.80
   0 -10 -15   -1.80    3.70
   0 -10 -15   -0.80    1.80
   0  10  15   -1.00    1.40
   0  10 -15   -1.30    2.00
   0  10  15   -4.50    2.80
  -1 -10 -15    3.10    2.30
  -1  10 -15    2.40    1.80
   1  10  15    2.40    4.90
  -5   0  16   -0.40    0.90
   5   0 -16    2.30    1.80
   4   0 -16   12.40    3.90
   4   0 -16   10.70    3.80
  -4   0  16    2.30    2.70
  -4   0  16    6.90    2.80
  -3   0  16    1.30    2.00
  -3   0  16   -0.40    2.40
   3   0 -16    1.30    2.40
  -3   0  16   -2.80    2.00
   2   0 -16  107.39    8.70
  -2   0  16  119.39    9.50
  -2   0  16  104.69    9.70
  -2   0  16  108.49    7.90
   2   0 -16   96.49   10.50
  -2   0  16   90.59   11.20
   1   0 -16   -0.60    1.50
  -1   0  16    0.40    1.60
   0   0  16 1963.00   57.39
   0   0 -16 1978.90   56.99
   1   0  16    6.80    3.20
   1   0  16    1.20    2.50
   1   0  16    0.90    3.80
  -1   0 -16   -1.10    2.00
   1   0  16    0.80    2.70
   1   0  16   -0.10    1.80
   2   0  16   23.30    7.50
   2   0  16   17.60    5.90
  -2   0 -16   13.10    3.80
   2   0  16    9.70    4.30
  -2   0 -16   13.60    5.10
  -2   0 -16   11.60    4.00
  -3   0 -16   -0.80    4.70
  -3   0 -16    8.50    4.80
   3   0  16   -2.30    2.60
   3   0  16    4.00    2.50
   3   0  16   -5.20    6.10
  -3   0 -16   -3.20    2.50
  -4   0 -16    8.00    3.50
  -4   0 -16    7.60    3.80
   4   0  16   13.70    4.30
   4   0  16   10.50    4.50
  -5  -1  16    1.40    1.20
   5  -1 -16    2.20    2.00
  -5   1  16    1.40    2.00
  -5   1  16    1.90    1.20
   5   1 -16   -0.50    2.10
   4  -1 -16    5.90    3.00
  -4  -1  16   12.00    3.80
   4  -1 -16   12.50    3.90
  -4  -1  16    9.20    2.90
   4   1 -16    6.00    3.00
  -4   1  16   17.50    4.10
  -4   1  16    8.70    3.10
   4   1 -16    9.20    3.00
   3  -1 -16    0.10    2.20
   3  -1 -16    0.20    2.90
  -3  -1  16    1.10    2.60
  -3  -1  16   -1.50    1.80
  -3  -1  16    5.60    3.90
   3   1 -16    2.20    2.20
  -3   1  16    3.10    3.30
   3   1 -16    0.90    2.20
  -3   1  16    0.40    2.00
  -3   1  16   -2.30    1.80
   2  -1 -16  190.38   12.90
  -2  -1  16  204.68   11.10
  -2  -1  16  220.58   14.00
  -2  -1  16  204.98   12.80
   2  -1 -16  210.38   12.70
  -2   1  16  190.88   13.50
  -2   1  16  182.58   16.60
  -2   1  16  204.38   11.70
  -2   1  16  191.38   13.20
   2   1 -16  196.18   12.00
   1  -1 -16    0.00    2.20
  -1  -1  16    1.50    2.10
   1  -1 -16    1.10    2.60
  -1  -1  16    4.10    2.90
  -1   1  16   -5.20    4.00
  -1   1  16    0.60    1.60
  -1   1  16   -1.40    1.80
   0  -1  16  313.57   16.50
   0  -1 -16  336.57   16.70
   0  -1  16  320.87   15.80
   0   1 -16  333.97   14.80
   0   1 -16  322.97   15.20
   0   1  16  330.87   21.80
   0   1  16  317.67   16.70
   0   1  16  339.07   16.80
   1  -1  16    4.30    3.50
   1  -1  16    9.50    3.00
  -1  -1 -16    1.40    3.00
   1  -1  16   -0.20    4.10
   1  -1  16   11.10    3.80
   1   1  16    0.30    2.20
   1   1  16    6.40    2.70
  -1   1 -16    7.90    3.50
   1   1  16    5.60    3.40
   1   1  16   -2.30    3.50
   1   1  16    5.80    4.30
   2  -1  16  523.45   26.80
   2  -1  16  557.74   27.50
   2  -1  16  561.14   26.70
  -2  -1 -16  533.95   23.40
   2  -1  16  538.35   32.10
  -2  -1 -16  526.15   26.80
  -2   1 -16  542.15   26.90
   2   1  16  524.05   26.30
   2   1  16  472.35   24.50
   2   1  16  578.54   32.30
   2   1  16  514.35   25.70
  -2   1 -16  522.45   23.50
  -3  -1 -16    9.50    4.50
  -3  -1 -16   -0.90    2.60
   3  -1  16    2.90    2.80
   3  -1  16   -1.10    2.50
   3  -1  16   -5.00   11.50
  -3  -1 -16   -0.60    3.70
   3   1  16   14.70    8.00
   3   1  16    4.10    2.90
  -3   1 -16   -3.50    2.80
   3   1  16   -0.90    2.70
   4  -1  16   38.20    6.90
   4  -1  16   45.40    6.70
  -4  -1 -16   48.30    7.30
  -4  -1 -16   41.60    6.60
   4   1  16   33.40    5.70
  -4   1 -16   31.80    6.70
   4   1  16   41.80    6.70
  -4   1 -16   43.90    6.50
   5  -2 -16    2.40    1.70
  -5  -2  16    1.80    1.20
   5   2 -16    5.30    2.30
  -5   2  16    1.60    1.30
  -4  -2  16    3.70    2.00
   4  -2 -16    6.00    3.30
   4  -2 -16    5.20    2.90
   4   2 -16    0.40    2.50
   4   2 -16    2.90    2.60
  -4   2  16    5.90    2.60
   3  -2 -16   71.59    8.00
   3  -2 -16   62.09    8.10
  -3  -2  16   67.29    7.10
  -3  -2  16   51.99    9.50
  -3  -2  16   71.59    8.10
  -3   2  16   52.09   10.10
  -3   2  16   55.29    9.00
  -3   2  16   71.69    7.60
   3   2 -16   59.89    7.70
  -3   2  16   64.99    8.20
   3   2 -16   67.79    8.60
  -2  -2  16   11.20    2.80
  -2  -2  16    5.50    3.00
   2  -2 -16   11.00    4.50
  -2  -2  16   10.10    3.70
   2  -2 -16    6.20    3.00
  -2   2  16    7.20    2.50
  -2   2  16   -0.80    4.00
  -2   2  16    6.20    3.80
  -2   2  16    4.20    2.90
   2   2 -16    8.30    3.20
   1  -2 -16  193.18   12.80
  -1  -2  16  188.18   12.20
  -1  -2  16  186.68   11.60
  -1  -2  16  187.88   14.10
   1  -2 -16  168.38   11.00
  -1   2  16  165.78   15.70
  -1   2  16  192.98   12.50
  -1   2  16  177.88   11.80
   0  -2  16  567.44   25.60
   0  -2  16  607.24   31.20
   0  -2  16  519.75   23.30
   0  -2 -16  528.05   20.50
   0  -2  16  588.94   22.50
   0  -2 -16  556.74   24.00
   0   2 -16  580.44   20.90
   0   2  16  504.85   22.90
   0   2 -16  555.34   19.80
   0   2  16  589.04   31.80
   0   2  16  607.94   24.20
   0   2  16  561.24   25.30
   1  -2  16   25.80    7.20
   1  -2  16   25.50    5.80
  -1  -2 -16   21.10    5.00
   1  -2  16   22.50    5.00
   1  -2  16   34.70    6.00
   1   2  16   25.70    5.30
  -1   2 -16   20.50    3.80
   1   2  16   25.90    4.80
   1   2  16   36.70    5.80
  -1   2 -16   14.20    3.50
   1   2  16   24.80    5.70
   1   2  16   26.50    5.10
  -1   2 -16   23.50    5.20
   2  -2  16   55.99    7.80
   2  -2  16   62.89    9.10
  -2  -2 -16   56.49    7.70
   2  -2  16   73.99   15.10
   2  -2  16   57.29   10.70
  -2  -2 -16   70.19   11.40
  -2  -2 -16   57.99    8.60
  -2   2 -16   50.19    8.40
   2   2  16   48.80    9.60
   2   2  16   68.19    9.20
   2   2  16   58.49    8.30
  -2   2 -16   73.59    9.90
   3  -2  16   24.60    6.30
   3  -2  16    9.10    4.50
  -3  -2 -16   16.50    5.30
  -3  -2 -16   13.70    5.10
  -3  -2 -16   21.20    7.00
  -3   2 -16   20.60    4.80
   3   2  16   13.50    5.40
   3   2  16   22.90    6.10
   4  -2  16    4.20    2.10
  -4  -2 -16    0.10    2.10
   4  -2  16    2.60    3.30
   4   2  16    2.30    2.60
   4   2  16    6.50    3.50
  -4   2 -16    0.90    3.60
   4  -3 -16   -1.90    1.50
   4  -3 -16    1.50    2.80
  -4  -3  16   -1.40    1.10
  -4   3  16    2.50    1.60
  -4   3  16    1.50    1.70
   4   3 -16   -0.50    1.90
   4   3 -16    2.10    2.10
  -3  -3  16   26.50    6.10
  -3  -3  16   15.60    3.70
   3  -3 -16   17.20    4.80
   3  -3 -16   21.80    5.30
  -3   3  16   15.90    6.00
  -3   3  16   13.10    7.50
  -3   3  16   28.10    5.70
   3   3 -16   16.50    4.70
   3   3 -16   16.50    4.80
  -3   3  16   23.40    5.20
   2  -3 -16   47.30    7.00
  -2  -3  16   55.19    7.60
  -2  -3  16   55.79    5.70
   2  -3 -16   57.59    8.00
  -2  -3  16   56.89    7.50
   2   3 -16   59.59    7.10
  -2   3  16   63.09    7.50
  -2   3  16   60.29    7.00
  -2   3  16   56.69    7.40
  -2   3  16   57.99   10.70
  -1  -3  16  105.39    9.70
  -1  -3  16  116.99    8.70
   1  -3 -16  124.09    9.20
  -1  -3  16  112.89   12.50
   1  -3 -16  101.09   10.20
  -1  -3  16  112.29   11.50
  -1   3  16  109.79    9.40
   1   3 -16  109.29    8.20
  -1   3  16  119.09   13.20
  -1   3  16   99.59    9.10
   0  -3  16  236.48   16.40
   0  -3  16  255.87   13.10
   0  -3  16  246.08   14.80
   0  -3 -16  240.48   13.20
   0  -3 -16  243.38   15.30
   0  -3  16  250.97   19.00
   0   3 -16  246.38   11.60
   0   3 -16  248.28   11.30
   0   3  16  228.48   19.00
   0   3  16  240.68   14.50
   0   3  16  246.28   14.40
   1  -3  16  419.86   22.60
  -1  -3 -16  427.36   19.60
   1  -3  16  436.86   28.40
   1  -3  16  428.46   20.90
   1  -3  16  408.26   21.90
  -1  -3 -16  386.26   21.60
   1   3  16  422.26   20.90
  -1   3 -16  416.66   20.00
   1   3  16  421.86   21.50
   1   3  16  406.46   20.00
   1   3  16  402.66   21.90
   1   3  16  442.06   26.90
  -2  -3 -16  108.29   10.80
  -2  -3 -16  107.39   12.70
   2  -3  16  109.79   11.40
   2  -3  16   94.69   14.70
   2  -3  16  111.89   12.10
  -2  -3 -16  119.69   11.90
   2   3  16  122.69   11.50
   2   3  16  111.59   11.70
   2   3  16  120.99   14.90
   2   3  16  107.69   11.30
  -2   3 -16  112.39   12.00
  -2   3 -16  111.29    9.70
  -3  -3 -16    1.50    3.10
  -3  -3 -16    5.20    4.00
   3  -3  16   11.50    4.60
   3  -3  16    6.10    4.00
   3   3  16   -0.50    3.10
  -3   3 -16    1.40    2.80
   3   3  16    4.80    3.00
  -4  -3 -16    5.20    2.50
   4  -3  16   10.20    5.20
   4  -3  16    1.70    2.40
  -4  -3 -16    2.30    2.40
   4   3  16    2.40    2.10
  -4   3 -16    5.50    2.50
   4   3  16    3.50    4.40
   4  -4 -16   -1.20    1.60
  -4  -4  16   -0.20    1.30
   4   4 -16    2.20    2.40
  -4   4  16    0.50    1.10
   4   4 -16   -1.60    1.90
   3  -4 -16    3.30    2.90
   3  -4 -16    3.70    3.00
  -3  -4  16    1.60    2.10
  -3   4  16    2.60    2.40
  -3   4  16   -0.60    1.70
  -3   4  16    2.50    7.20
  -3   4  16    4.20    4.40
   3   4 -16    2.60    2.80
   2  -4 -16   16.20    4.30
  -2  -4  16   17.40    3.20
  -2  -4  16    6.00    4.10
   2   4 -16   13.80    4.00
  -2   4  16   21.70    6.60
  -2   4  16    6.70    3.60
  -2   4  16   11.70    3.70
  -1  -4  16  165.68   12.20
   1  -4 -16  200.48   13.20
  -1  -4  16  173.98   10.90
   1  -4 -16  190.18   13.40
  -1  -4  16  189.08   16.70
  -1   4  16  175.68   12.60
   1   4 -16  180.58   11.00
  -1   4  16  194.78   18.90
  -1   4  16  188.28   12.50
   0  -4 -16   15.30    4.10
   0  -4  16   20.20    4.40
   0  -4 -16   14.30    3.90
   0  -4  16    6.30    3.60
   0  -4  16   13.40    4.50
   0  -4  16   14.20    5.60
   0  -4  16   13.70    7.40
   0   4  16   11.90    5.30
   0   4  16   18.20    4.60
   0   4  16   17.00    4.20
   0   4  16    8.10    6.00
  -1  -4 -16    0.80    2.00
   1  -4  16    1.00    3.10
   1  -4  16   -0.30    2.90
   1  -4  16   -5.00    3.40
   1  -4  16   -1.60    3.50
  -1  -4 -16    0.90    3.90
   1   4  16    3.10    3.10
   1   4  16    4.40    4.30
   1   4  16   -4.40    3.20
  -1   4 -16    2.50    3.50
  -2  -4 -16   51.39    8.20
  -2  -4 -16   36.40    8.30
   2  -4  16   51.49    8.20
   2  -4  16   54.99    8.60
  -2  -4 -16   53.69    7.90
   2   4  16   43.20    7.40
  -2   4 -16   42.50    7.20
   2   4  16   54.89    8.00
   3  -4  16   61.69    9.40
   3  -4  16   51.39    8.60
  -3  -4 -16   57.69    8.90
  -3  -4 -16   49.40    9.70
  -3  -4 -16   69.39    8.80
  -3   4 -16   51.59    7.10
   3   4  16   63.39    8.30
   3   4  16   43.40    8.40
   4  -4  16    0.30    2.10
  -4  -4 -16    0.30    2.10
  -4  -4 -16    0.20    2.90
   4   4  16    4.30    2.30
  -4   4 -16   -0.30    2.10
   4  -5 -16    2.90    5.50
  -4  -5  16    2.90    1.40
   4   5 -16   -0.10    2.20
  -4   5  16    4.10    1.70
   4   5 -16    3.90    2.20
  -3  -5  16    7.70    2.30
   3  -5 -16    8.80    4.40
   3  -5 -16    2.20    2.20
   3   5 -16    8.80    3.70
  -3   5  16    8.10    4.80
  -3   5  16    9.30    3.70
   2  -5 -16   48.70    7.00
   2  -5 -16   35.30    6.30
  -2  -5  16   31.60    5.20
   2   5 -16   33.90    5.60
  -2   5  16   31.10    5.70
  -2   5  16   30.40    6.60
   1  -5 -16   77.69    8.40
   1  -5 -16   70.49    8.10
  -1   5  16   63.79    8.10
  -1   5  16   65.29    7.40
   1   5 -16   64.89    7.50
   0  -5 -16  150.28   12.90
   0  -5 -16  170.28   12.70
   0  -5  16  153.18   15.00
   0  -5  16  179.48   13.00
   0  -5  16  168.78   19.90
   0   5  16  170.28   11.80
   0   5  16  168.88   11.60
   0   5  16  171.68   17.10
   1  -5  16   98.59   11.00
  -1  -5 -16   95.59   11.10
  -1  -5 -16  108.89   12.20
  -1  -5 -16  109.19   10.20
   1  -5  16  104.79   12.00
   1   5  16   97.49   10.90
   1   5  16  104.59   10.30
   1   5  16  103.49   13.50
  -2  -5 -16   -0.50    3.10
  -2  -5 -16    2.20    3.10
  -2  -5 -16    0.60    2.20
   2  -5  16   -1.20    3.40
   2  -5  16   -1.40    2.70
   2   5  16   -1.30    6.30
  -2   5 -16    2.70    3.10
   2   5  16    3.50    3.20
   2   5  16    0.00    2.40
  -3  -5 -16    1.20    2.10
   3  -5  16   -3.60    3.50
  -3  -5 -16    0.10    2.10
  -3   5 -16    4.70    2.80
   3   5  16    6.30    4.10
   3   5  16    1.00    2.50
   4  -5  16    2.90    2.00
  -4  -5 -16   -1.90    1.60
  -4  -5 -16   -1.20    2.80
   4   5  16    1.70    1.80
  -4   5 -16    0.90    2.20
   4  -6 -16    6.90    6.40
   4   6 -16    2.20    2.20
   4   6 -16    4.10    2.30
   3  -6 -16   -6.40    4.80
   3  -6 -16   -1.80    1.80
  -3  -6  16   -0.30    1.60
   3  -6 -16   -2.80    2.20
   3   6 -16    0.30    2.20
  -3   6  16    1.30    1.90
  -3   6  16    0.30    3.50
   2  -6 -16    6.50    3.00
   2  -6 -16    3.60    3.10
   2   6 -16    1.70    2.90
  -2   6  16   -0.50    2.10
   1  -6 -16  145.09   12.30
   1  -6 -16  131.29   11.40
  -1   6  16  121.99   10.20
  -1   6  16   97.99   10.90
   1   6 -16  115.19    9.70
   0  -6 -16    1.30    3.00
   0  -6 -16    1.80    2.10
   0   6  16    1.30    3.90
   0   6 -16   -0.10    2.90
  -1  -6 -16   69.19    9.00
   1  -6  16   51.59    8.70
   1  -6  16   69.79    9.60
  -1  -6 -16   64.89    8.40
  -1  -6 -16   70.19   10.00
   1   6  16   59.09    8.30
   1   6  16   85.39    9.80
   1   6  16   50.69   10.10
  -1   6 -16   64.79    7.40
   2  -6  16   -0.70    3.10
   2  -6  16    1.90    3.40
  -2  -6 -16   -0.40    2.70
  -2  -6 -16    1.10    2.10
  -2  -6 -16    9.50    4.20
   2   6  16    4.50    3.30
   2   6  16    1.00    3.40
  -2   6 -16    2.80    2.90
   3  -6  16   11.90    4.20
  -3  -6 -16    9.50    3.40
  -3  -6 -16   10.30    3.70
  -3  -6 -16    8.50    4.50
   3   6  16    8.10    3.50
   3   6  16    6.60    4.50
  -3   6 -16   12.00    3.80
   3  -7 -16   -6.80    3.80
   3  -7 -16   -0.10    2.00
  -3   7  16   -2.80    2.00
  -3   7  16    0.80    2.20
   3   7 -16    1.00    2.30
   2  -7 -16    8.40    3.70
   2  -7 -16    2.40    4.00
   2  -7 -16    7.40    3.40
   2   7 -16    4.50    2.70
  -2   7  16   10.70    3.80
   1  -7 -16    2.10    3.00
   1  -7 -16    0.90    2.90
  -1   7  16    3.50    4.00
   1   7 -16    7.30    3.10
   0  -7 -16   -0.20    2.40
   0  -7 -16    1.40    3.60
   0  -7 -16   -2.20    1.70
   0   7 -16    5.20    2.90
   0   7  16   -3.70    3.50
  -1  -7 -16   19.90    5.60
  -1  -7 -16   15.70    4.50
  -1  -7 -16   14.70    4.90
   1  -7  16   13.90    5.00
   1   7  16   19.50    6.40
   1   7  16   21.40    6.00
   1   7  16   21.10    5.10
  -1   7 -16   18.80    4.50
  -2  -7 -16   26.90    7.70
   2  -7  16   34.40    6.70
  -2  -7 -16   52.99    7.50
   2   7  16   46.10    6.60
   2   7  16   41.10    6.20
  -2   7 -16   28.70    5.70
  -3  -7 -16    3.10    2.50
   3  -7  16    1.50    2.20
  -3  -7 -16   -1.70    2.50
   3   7  16   -0.90    1.20
  -3   7 -16    2.20    2.20
   3  -8 -16    3.20    1.80
   3  -8 -16    5.70    4.20
  -3   8  16   -0.90    2.00
  -3   8  16    1.40    2.20
   3   8 -16   -3.30    1.90
   2  -8 -16    4.50    3.70
   2  -8 -16    1.80    4.00
   2  -8 -16    1.80    2.00
  -2   8  16   -4.30    2.80
   2   8 -16   -1.20    2.10
  -2   8  16   -2.70    2.80
   1  -8 -16    9.10    3.30
   1  -8 -16   10.40    5.50
   1  -8 -16    0.10    6.00
   1  -8 -16    6.60    3.00
  -1   8  16    8.10    4.90
   1   8 -16    8.80    3.30
   0  -8 -16   -3.00    4.90
   0  -8 -16    2.80    2.50
   0  -8 -16    1.00    2.40
   0   8 -16   -0.60    2.10
   0   8  16   -1.60    3.50
  -1  -8 -16   70.49    7.50
  -1  -8 -16   53.99    9.10
  -1  -8 -16   73.59    8.80
  -1   8 -16   75.19    7.20
   1   8  16   65.49    8.80
   1   8  16   74.69    8.20
  -2  -8 -16    2.00    2.50
   2  -8  16   -3.00    1.90
  -2  -8 -16   -1.60    2.20
  -2   8 -16    0.20    2.30
   2   8  16    5.60    3.10
   2  -9 -16    3.50    2.10
   2  -9 -16   -4.40    4.40
   2   9 -16    1.30    2.20
  -2   9  16    2.00    2.60
   1  -9 -16   -3.70    5.00
  -1   9  16   -3.30    1.90
   0  -9 -16   -1.70    1.80
   0  -9 -16    0.00    2.90
   0  -9 -16   14.90    5.70
   0   9  16    0.70    2.70
   0   9 -16    1.10    1.70
   0   9  16    2.10    2.00
  -1  -9 -16    7.90    3.20
  -1  -9 -16   14.50    4.80
   1   9  16    5.90    2.60
  -1   9 -16   11.20    3.20
  -2   9 -16    3.20    2.00
   2   9  16   -3.40    3.00
   1 -10 -16   12.30    2.90
   1  10 -16    5.90    2.70
  -1  10  16    6.90    2.70
  -1  10  16    7.40    2.50
   0 -10 -16    9.80    2.90
   0  10  16    5.00    1.90
   0  10  16    6.50    3.10
  -5   0  17    0.10    1.00
   5   0 -17   -0.40    1.70
  -4   0  17   -1.80    1.50
  -4   0  17   -2.60    1.60
   3   0 -17  119.09   11.00
  -3   0  17  129.19   10.90
   3   0 -17  126.79   11.20
  -3   0  17  125.29    9.90
  -2   0  17    8.30    6.30
  -2   0  17   -0.50    1.40
   2   0 -17    0.50    2.20
   2   0 -17   -0.20    4.00
  -2   0  17   -0.40    2.30
   1   0 -17    4.70    2.60
  -1   0  17    9.10    3.00
  -1   0  17    4.60    2.40
  -1   0  17    4.60    4.50
   0   0  17   -3.50    2.70
   0   0  17    3.50    3.00
   0   0  17    0.60    2.30
   0   0  17   -0.40    1.70
   0   0 -17    2.40    2.60
   1   0  17 1334.17   45.30
   1   0  17 1243.18   42.80
   1   0  17 1231.68   44.20
   1   0  17 1243.68   43.40
  -1   0 -17 1269.67   42.80
   1   0  17 1322.67   52.89
   2   0  17    2.10    4.50
  -2   0 -17    3.40    3.30
  -2   0 -17   -2.20    3.10
  -2   0 -17   -1.50    3.60
   2   0  17   -1.10    1.50
   2   0  17    1.40    3.80
   2   0  17   -2.00    2.20
   3   0  17  137.49   12.90
  -3   0 -17  120.39   12.80
  -3   0 -17  141.19   11.70
   3   0  17  151.58   14.40
   3   0  17  147.59   17.40
  -4   0 -17    9.50    3.40
   4   0  17    0.20    2.70
   4   0  17    5.50    2.90
  -5  -1  17    0.60    1.10
  -5   1  17    0.40    1.00
  -4  -1  17    0.00    2.40
   4  -1 -17    1.60    2.20
  -4  -1  17   -1.60    1.60
   4  -1 -17   -3.10    1.60
   4   1 -17   -0.30    1.60
   4   1 -17   -0.20    2.60
  -4   1  17   -0.90    1.70
  -4   1  17    0.30    1.60
  -3  -1  17    5.70    2.70
   3  -1 -17    4.20    2.50
   3  -1 -17    2.50    3.40
  -3  -1  17    1.40    2.10
  -3   1  17   -6.90    3.90
   3   1 -17    2.50    2.80
   3   1 -17   -1.90    1.90
  -3   1  17    1.90    1.90
  -3   1  17    2.60    1.80
  -2  -1  17   27.40    9.30
  -2  -1  17   21.00    5.40
  -2  -1  17   15.10    4.40
   2  -1 -17   22.20    5.40
   2  -1 -17   21.20    5.10
  -2  -1  17   25.40    4.80
  -2   1  17   17.40    3.80
  -2   1  17   24.20    4.90
  -2   1  17   30.30    6.10
  -2   1  17   22.50    7.10
   2   1 -17   30.10    5.10
   1  -1 -17  157.88   10.30
  -1  -1  17  160.78   15.30
   1  -1 -17  177.88   12.20
  -1  -1  17  173.78   11.60
  -1  -1  17  161.68   11.70
  -1  -1  17  179.48   17.20
  -1   1  17  156.38   12.50
  -1   1  17  157.78   11.20
   1   1 -17  169.58   11.40
  -1   1  17  164.68   15.40
  -1   1  17  153.68   11.40
   0  -1  17    3.60    4.70
   0  -1 -17    4.40    2.30
   0  -1  17    0.90    1.80
   0  -1  17    6.20    2.70
   0  -1  17   -0.70    2.90
   0   1  17    1.50    1.90
   0   1 -17    0.50    2.30
   0   1 -17   -0.70    2.20
   0   1  17    1.00    4.00
   0   1  17    1.30    2.40
   1  -1  17   70.19    8.70
  -1  -1 -17   67.69    9.00
   1  -1  17   61.39    7.50
   1  -1  17   61.09    8.20
   1  -1  17   61.99    9.60
   1  -1  17   72.19    7.70
   1   1  17   72.59    8.50
   1   1  17   62.79   10.50
  -1   1 -17   60.19    7.20
   1   1  17   62.19    7.40
   1   1  17   67.59    8.40
  -1   1 -17   69.09    8.20
   1   1  17   68.29    8.30
  -1   1 -17   75.69    7.40
  -2  -1 -17    3.90    3.00
   2  -1  17    0.90    1.90
   2  -1  17    3.50    2.50
  -2  -1 -17    9.30    4.00
   2  -1  17   12.90    6.30
   2  -1  17    7.40    5.30
  -2  -1 -17   -2.20    3.10
   2   1  17    6.40    3.20
   2   1  17    6.20    3.20
   2   1  17    7.00    4.30
   2   1  17    9.10    5.00
  -2   1 -17   17.60    5.60
  -2   1 -17    4.20    3.50
  -3  -1 -17   71.29    9.60
  -3  -1 -17   73.39    9.00
   3  -1  17   57.89    9.50
  -3  -1 -17   71.79   11.00
   3  -1  17   66.79   18.40
   3  -1  17   82.99    9.60
   3   1  17   78.49    9.40
  -3   1 -17   69.29    8.40
   3   1  17   55.29   11.70
   3   1  17   78.19    9.40
   4  -1  17    2.20    2.70
  -4  -1 -17    3.70    2.60
  -4  -1 -17   -2.20    2.60
   4  -1  17   -0.30    2.50
  -4   1 -17    9.50    4.50
   4   1  17    6.80    3.10
   4   1  17    3.80    2.60
  -4  -2  17    2.70    1.80
   4  -2 -17   -1.20    1.80
   4  -2 -17    8.50    3.10
  -4   2  17    2.00    1.80
   4   2 -17    6.40    2.90
  -4   2  17    5.80    2.60
   4   2 -17    1.40    2.10
   3  -2 -17    6.10    3.50
  -3  -2  17   12.40    3.20
  -3  -2  17   13.10    4.90
   3  -2 -17    8.80    3.60
  -3  -2  17    1.10    4.40
   3   2 -17    9.30    3.50
  -3   2  17    5.10    6.80
  -3   2  17    7.30    2.80
   3   2 -17   13.80    5.10
  -3   2  17   10.40    5.20
  -3   2  17    5.60    2.50
  -2  -2  17   23.20    3.90
  -2  -2  17   39.00    6.70
   2  -2 -17   34.70    6.10
  -2  -2  17   30.50    6.10
   2  -2 -17   37.20    6.80
  -2   2  17   26.80    5.00
   2   2 -17   28.70    5.20
  -2   2  17   13.60    7.30
  -2   2  17   31.50    5.00
  -2   2  17   24.30    5.60
   1  -2 -17   -1.80    1.90
  -1  -2  17   -0.80    1.80
  -1  -2  17    1.00    3.50
  -1  -2  17    4.30    5.20
  -1  -2  17    0.10    2.50
  -1   2  17    8.60    5.30
   1   2 -17    3.00    2.30
   0  -2 -17  187.18   10.80
   0  -2  17  163.38   16.90
   0  -2  17  207.78   13.20
   0  -2 -17  178.28   13.30
   0  -2  17  191.58   12.00
   0  -2  17  177.88   13.60
   0  -2  17  202.78   17.30
   0   2 -17  197.48   10.50
   0   2  17  193.78   12.50
   0   2 -17  211.28   11.50
   0   2  17  190.58   17.10
   0   2  17  189.48   16.20
   0   2  17  194.08   14.10
   0   2  17  194.48   13.10
   1  -2  17  429.26   22.20
  -1  -2 -17  405.36   18.40
   1  -2  17  454.25   28.80
   1  -2  17  397.26   20.80
   1  -2  17  420.76   22.30
   1   2  17  426.16   21.20
   1   2  17  401.16   20.60
  -1   2 -17  403.96   17.90
  -1   2 -17  427.16   20.50
   1   2  17  411.66   22.00
   1   2  17  409.56   26.70
   1   2  17  429.66   21.60
  -2  -2 -17  296.87   17.60
   2  -2  17  322.97   20.80
   2  -2  17  310.47   23.50
   2  -2  17  307.37   19.40
   2  -2  17  301.27   24.40
  -2  -2 -17  277.27   20.70
   2   2  17  333.07   18.80
   2   2  17  321.07   19.60
   2   2  17  308.57   19.90
   2   2  17  291.97   23.20
  -2   2 -17  286.87   19.80
   3  -2  17   52.59    8.50
  -3  -2 -17   46.70    8.70
  -3  -2 -17   41.60    7.40
  -3  -2 -17   31.80    6.60
   3  -2  17   41.10    7.50
   3   2  17   45.50    7.90
  -3   2 -17   35.60    6.20
   3   2  17   37.20    7.40
   3   2  17   45.10    9.80
  -4  -2 -17    3.20    3.00
  -4  -2 -17    3.70    2.80
   4  -2  17   10.60    4.00
   4  -2  17    1.10    1.90
   4   2  17   12.30    3.90
   4   2  17    3.10    2.50
  -4   2 -17    7.40    3.20
   4  -3 -17    3.60    2.70
  -4  -3  17    0.00    1.40
   4  -3 -17   -1.70    1.80
  -4   3  17    1.70    1.50
   4   3 -17    5.30    1.90
  -4   3  17    1.10    1.60
   4   3 -17    7.90    2.60
   3  -3 -17   13.70    4.10
   3  -3 -17   17.80    4.50
  -3  -3  17   18.90    7.30
  -3  -3  17   22.00    4.40
  -3   3  17   12.30    6.30
   3   3 -17   19.50    5.10
  -3   3  17   11.30    5.50
   3   3 -17   25.30    5.30
  -3   3  17   29.30    5.70
  -3   3  17   15.80    4.10
   2  -3 -17   38.10    6.20
  -2  -3  17   40.80    6.90
   2  -3 -17   45.10    7.00
  -2  -3  17   50.99    5.90
  -2  -3  17   49.40    7.70
   2   3 -17   48.30    6.60
  -2   3  17   46.80    6.90
  -2   3  17   49.20    9.20
  -2   3  17   51.29    6.80
  -1  -3  17   77.39    8.00
  -1  -3  17   62.59   10.10
  -1  -3  17   68.39    7.20
  -1  -3  17   44.50    8.60
   1  -3 -17   65.59    7.20
  -1   3  17   70.39   10.60
  -1   3  17   69.29    7.60
  -1   3  17   63.19    7.40
   1   3 -17   51.49    8.00
   0  -3  17  387.56   17.70
   0  -3  17  360.46   19.80
   0  -3 -17  380.96   17.80
   0  -3  17  393.26   22.10
   0  -3  17  354.16   18.90
   0  -3  17  430.16   26.20
   0   3  17  374.66   19.20
   0   3  17  383.16   19.10
   0   3  17  361.56   19.60
   0   3  17  417.46   26.70
   1  -3  17   23.50    7.50
  -1  -3 -17   21.90    6.10
   1  -3  17   19.10    4.50
  -1  -3 -17    8.70    4.00
   1  -3  17   14.70    5.40
   1  -3  17   22.10    5.20
  -1   3 -17   15.60    4.90
   1   3  17   12.60    6.90
   1   3  17   18.80    4.70
   1   3  17   11.90    4.30
   1   3  17   18.40    5.50
   2  -3  17  137.79   18.20
  -2  -3 -17  189.88   14.40
  -2  -3 -17  163.68   13.40
  -2  -3 -17  149.59   15.10
   2  -3  17  178.98   14.80
   2  -3  17  174.78   14.20
   2   3  17  175.28   13.90
   2   3  17  173.08   17.00
   2   3  17  167.48   14.10
  -2   3 -17  149.49   12.00
   2   3  17  160.68   14.00
   3  -3  17    5.90    2.90
  -3  -3 -17    5.10    3.70
  -3  -3 -17   -0.50    2.80
  -3  -3 -17   -4.90    3.80
   3  -3  17   -1.00    2.70
   3   3  17    0.40    2.90
   3   3  17    3.20    3.10
  -3   3 -17   -3.20    2.60
  -4  -3 -17    6.40    3.30
   4  -3  17    8.80    5.60
   4  -3  17   12.50    4.10
  -4  -3 -17   13.30    3.20
   4   3  17    9.70    3.80
  -4   3 -17   11.30    3.00
   4   3  17    6.80    2.80
   4  -4 -17    8.10    3.10
  -4  -4  17    3.60    1.60
   4  -4 -17   10.70    3.60
   4   4 -17    3.40    2.50
   4   4 -17    4.20    2.50
  -4   4  17    4.30    2.00
   3  -4 -17    1.50    2.20
   3  -4 -17    5.60    2.90
  -3  -4  17    2.30    2.10
  -3   4  17    2.50    4.10
   3   4 -17   12.10    4.20
  -3   4  17    6.70    2.00
   3   4 -17    2.70    2.80
  -2  -4  17   17.80    5.70
   2  -4 -17   18.10    5.30
   2  -4 -17   31.70    5.60
  -2   4  17   30.30    6.50
  -2   4  17   24.00    5.20
  -2   4  17   22.50    8.40
   2   4 -17   18.40    4.60
  -1  -4  17   62.59    7.90
  -1  -4  17   44.80    9.70
  -1  -4  17   37.80    6.30
   1  -4 -17   65.29    7.70
   1  -4 -17   43.50    7.40
   1   4 -17   48.70    7.50
  -1   4  17   57.49   10.50
  -1   4  17   66.09    7.50
  -1   4  17   54.69    7.40
   0  -4  17  326.07   15.30
   0  -4  17  355.26   21.90
   0  -4  17  353.06   18.60
   0  -4  17  332.07   18.70
   0  -4 -17  336.47   17.80
   0  -4  17  333.07   24.20
   0  -4 -17  341.37   18.70
   0   4  17  361.86   24.80
   0   4  17  331.47   19.30
   0   4  17  338.87   18.20
   0   4  17  363.56   18.30
   1  -4  17   14.10    5.20
   1  -4  17   21.30    6.80
  -1  -4 -17   26.40    6.00
   1  -4  17   16.30    7.80
  -1  -4 -17   23.30    5.10
   1  -4  17   28.10    5.90
  -1  -4 -17   18.20    6.00
   1   4  17   29.00    6.00
   1   4  17   23.20    5.80
   1   4  17   25.80    5.40
   1   4  17   15.40    6.50
  -2  -4 -17   19.70    5.50
   2  -4  17   21.20    6.10
  -2  -4 -17    6.40    3.40
   2  -4  17   14.60    4.60
  -2  -4 -17    7.10    5.00
   2   4  17    5.70    6.30
   2   4  17   26.80    6.20
   2   4  17   15.20    5.20
  -2   4 -17   12.80    4.30
  -3  -4 -17   12.20    6.70
  -3  -4 -17   21.20    5.60
   3  -4  17   24.00    6.20
  -3  -4 -17   33.30    6.80
   3  -4  17   21.90    5.90
   3   4  17   18.90    5.90
   3   4  17   21.10    6.20
  -3   4 -17   17.30    5.30
  -4  -4 -17   15.10    4.40
  -4  -4 -17   13.40    3.10
   4  -4  17   18.10    4.50
  -4   4 -17   15.00    3.70
   4   4  17    7.10    2.80
   4  -5 -17    6.60    2.70
   4   5 -17    2.40    2.10
   4   5 -17    5.20    2.40
  -4   5  17    7.40    2.40
  -3  -5  17    7.60    2.00
   3  -5 -17    6.20    3.30
   3  -5 -17   17.20    4.00
  -3   5  17    4.30    4.00
  -3   5  17    5.10    2.70
   3   5 -17    8.20    3.40
   2  -5 -17    4.10    2.60
   2  -5 -17    4.90    2.80
  -2   5  17   -1.10    3.60
   2   5 -17    2.70    2.50
  -2   5  17    4.10    3.10
  -2   5  17    9.20    5.10
   1  -5 -17   43.70    6.70
   1  -5 -17   56.99    7.90
  -1  -5  17   34.00    6.90
  -1   5  17   46.20    6.90
   1   5 -17   48.00    6.90
  -1   5  17   48.40    7.20
  -1   5  17   50.69   10.20
   0  -5 -17  409.26   20.80
   0  -5 -17  401.36   21.60
   0  -5  17  371.66   19.90
   0  -5  17  394.36   29.30
   0  -5  17  395.36   24.50
   0   5  17  406.86   27.40
   0   5  17  356.46   18.30
   0   5  17  394.76   19.80
  -1  -5 -17    9.10    3.90
   1  -5  17   21.20    6.40
  -1  -5 -17    8.20    4.10
  -1  -5 -17    4.70    2.60
   1  -5  17   11.50    4.70
   1   5  17   10.60    4.70
   1   5  17   10.70    5.80
   1   5  17   15.20    4.70
  -2  -5 -17   80.89   10.10
   2  -5  17   82.99   10.40
   2  -5  17   87.69   10.50
  -2  -5 -17   88.59   10.10
  -2  -5 -17   84.89   11.80
   2   5  17   80.19    9.80
   2   5  17   70.99    9.60
   2   5  17   65.49   11.00
  -2   5 -17  100.19    8.80
  -3  -5 -17    2.60    2.30
  -3  -5 -17    0.30    4.80
   3  -5  17    0.10    2.40
   3  -5  17   14.20    4.60
   3   5  17    3.50    3.20
  -3   5 -17   -0.50    2.50
   3   5  17    1.70    2.30
  -4  -5 -17    4.70    2.80
  -4  -5 -17    0.40    1.70
   4  -5  17    4.70    2.40
   4   5  17    6.30    2.40
  -4   5 -17    4.80    2.50
  -4   6  17   -1.00    1.10
   4   6 -17   -1.90    2.10
   4   6 -17    0.20    2.20
   3  -6 -17    3.80    2.70
   3  -6 -17    5.60    2.90
  -3   6  17   12.20    4.80
  -3   6  17    3.40    2.70
   3   6 -17    6.30    3.10
   2  -6 -17   10.30    3.80
   2  -6 -17    5.80    3.40
  -2   6  17    8.50    3.10
   2   6 -17    4.00    2.40
  -2   6  17    9.00    5.40
   1  -6 -17    1.60    2.80
   1  -6 -17    7.00    3.20
  -1   6  17    3.30    4.50
   1   6 -17   -3.10    2.30
  -1   6  17   12.80    6.20
  -1   6  17    3.10    2.80
   0  -6 -17   13.10    3.90
   0  -6 -17   12.70    4.80
   0   6  17   11.10    5.70
   0   6  17   13.70    5.20
   0   6 -17   10.10    3.60
   1  -6  17   21.00    6.10
   1  -6  17   15.50    5.20
  -1  -6 -17   11.90    5.10
  -1  -6 -17   23.90    5.60
  -1  -6 -17   15.20    5.30
   1   6  17   27.90    6.20
   1   6  17   25.60    7.80
  -1   6 -17   26.20    4.90
   1   6  17   21.70    6.00
  -2  -6 -17    6.10    2.70
   2  -6  17    8.40    4.30
  -2  -6 -17    8.90    4.00
   2  -6  17    4.70    3.00
  -2  -6 -17    3.60    3.70
  -2   6 -17   10.30    3.90
   2   6  17    5.90    4.10
   2   6  17    5.70    3.70
  -3  -6 -17   17.70    4.60
  -3  -6 -17   20.60    4.70
   3  -6  17   29.40    6.10
   3   6  17   14.00    4.30
  -3   6 -17   17.70    4.10
   3   6  17   17.70    4.50
   3  -7 -17    7.70    2.90
   3   7 -17    4.00    2.80
   3   7 -17    5.50    3.30
  -3   7  17    4.10    2.10
  -3   7  17    6.80    3.50
   2  -7 -17    2.80    2.50
   2  -7 -17    3.40    2.90
  -2   7  17   10.30    6.00
  -2   7  17    7.60    2.80
   2   7 -17    6.50    2.70
   1  -7 -17   54.49    7.30
   1  -7 -17   47.50    7.30
  -1   7  17   48.80    9.60
  -1   7  17   40.00    7.10
   1   7 -17   38.80    6.70
   0  -7 -17   15.30    5.70
   0  -7 -17   27.10    5.30
   0  -7 -17   15.40    4.10
   0   7  17   21.50    7.10
   0   7 -17   30.20    6.10
   1  -7  17    0.60    3.60
  -1  -7 -17   -2.90    1.90
  -1  -7 -17    3.40    2.90
  -1  -7 -17    0.00    3.20
   1   7  17   -0.30    3.30
   1   7  17   -3.80    3.40
   1   7  17   -0.80    2.00
  -1   7 -17    1.60    2.80
  -2  -7 -17    7.40    3.40
  -2  -7 -17   10.10    5.30
  -2  -7 -17    6.80    3.00
   2  -7  17    8.40    3.80
   2   7  17    8.10    3.60
   2   7  17   12.10    3.90
  -2   7 -17    9.00    3.10
  -3  -7 -17    6.50    3.40
   3  -7  17   20.30    4.60
   3   7  17   13.00    3.70
  -3   7 -17   10.70    3.10
   3  -8 -17    1.10    2.10
  -3   8  17    0.60    1.80
   3   8 -17   -0.10    2.10
  -3   8  17    0.10    2.50
   3   8 -17   -3.10    3.10
   2  -8 -17   10.40    4.40
   2  -8 -17   17.50    7.80
   2  -8 -17   19.60    4.40
   2   8 -17   11.30    3.40
  -2   8  17   10.50    4.80
  -2   8  17   17.60    4.40
   1  -8 -17    2.90    2.70
   1  -8 -17   -0.40    2.50
  -1   8  17    0.90    3.50
   1   8 -17    1.00    2.30
   0  -8 -17   56.09    8.00
   0  -8 -17   31.30    7.80
   0  -8 -17   51.99    6.80
   0   8  17   39.40    8.00
   0   8 -17   56.89    6.70
   0   8  17   53.39    7.80
  -1  -8 -17    2.50    2.50
  -1  -8 -17    7.20    5.20
   1   8  17    0.20    2.10
  -1   8 -17    0.80    2.90
   1   8  17   -3.90    4.30
   1   8  17    3.30    4.80
   2  -8  17    3.10    2.80
  -2  -8 -17   10.70    3.10
  -2  -8 -17    5.60    3.00
  -2   8 -17    6.90    2.20
   2   8  17    6.00    2.80
   2  -9 -17    0.20    1.80
   2   9 -17   -0.20    2.00
  -2   9  17    4.60    1.80
   1  -9 -17    1.40    1.80
   1   9 -17    5.10    2.20
  -1   9  17   -0.30    1.80
   0  -9 -17    1.60    2.10
   0  -9 -17    4.20    3.30
   0   9  17    1.80    2.00
   0   9  17    3.50    3.00
   0   9 -17    2.80    2.30
  -1  -9 -17    2.30    4.40
  -1  -9 -17    1.50    2.00
   1   9  17    3.10    2.00
  -1   9 -17    7.40    2.50
   0 -10 -17    1.80    2.00
   0  10  17    2.20    1.90
   0  10 -17    5.40    2.30
   0  10  17    0.40    3.50
  -4   0  18   24.90    4.20
   4   0 -18   25.70    5.20
   4   0 -18   28.80    5.30
  -4   0  18   22.60    4.50
  -3   0  18   -0.20    3.30
   3   0 -18   -2.70    2.60
  -3   0  18    0.10    2.00
   3   0 -18    0.50    2.20
  -2   0  18  261.57   16.50
  -2   0  18  225.48   19.00
  -2   0  18  242.98   15.00
   2   0 -18  246.58   14.20
  -2   0  18  243.68   12.20
   2   0 -18  231.88   15.90
  -1   0  18   11.10    4.40
  -1   0  18    4.70    3.90
  -1   0  18    9.10    6.10
   1   0 -18   -0.70    3.40
  -1   0  18    4.80    2.50
   0   0  18  381.56   20.00
   0   0  18  378.16   19.30
   0   0 -18  413.56   19.70
   0   0  18  424.66   26.70
   0   0  18  387.36   19.40
   0   0  18  405.16   20.50
   1   0  18   -0.20    3.30
   1   0  18   -1.20    1.90
   1   0  18    3.60    2.40
   1   0  18    0.10    1.90
  -1   0 -18   -7.50    3.90
   1   0  18   -4.40    2.40
   2   0  18  677.43   30.80
   2   0  18  653.43   31.00
   2   0  18  621.44   35.70
  -2   0 -18  621.24   29.40
  -2   0 -18  644.74   25.60
  -2   0 -18  642.94   32.30
   2   0  18  625.94   29.90
  -3   0 -18   -0.20    2.40
   3   0  18   -2.90    1.90
   3   0  18    0.20    7.30
   3   0  18    0.70    3.20
   4   0  18    0.30    2.30
   4   0  18    2.10    2.10
  -4   0 -18    0.00    3.90
  -4   0 -18    5.50    2.90
   4  -1 -18   -0.30    2.00
   4  -1 -18    4.00    2.50
  -4  -1  18    0.10    1.60
  -4   1  18    0.50    1.40
   4   1 -18    2.30    2.40
   4   1 -18    1.00    2.10
  -4   1  18    0.30    1.70
  -3  -1  18    4.30    4.80
  -3  -1  18   -1.40    2.00
  -3  -1  18   -0.60    2.30
   3  -1 -18    6.10    3.70
   3  -1 -18    3.00    3.00
  -3   1  18    0.00    1.70
  -3   1  18   11.10    4.20
   3   1 -18    3.30    3.30
   3   1 -18    2.50    2.80
  -3   1  18   -1.00    2.20
  -2  -1  18    2.30    2.50
   2  -1 -18    8.50    4.60
  -2  -1  18   -0.90    2.10
  -2  -1  18   12.70    8.30
   2  -1 -18    3.00    2.90
  -2  -1  18    3.60    2.50
  -2   1  18    0.90    2.10
  -2   1  18    2.40    2.00
  -2   1  18    1.00    5.00
  -2   1  18    2.60    1.90
   2   1 -18    1.80    2.80
  -1  -1  18   10.20    3.60
  -1  -1  18   18.90    5.50
   1  -1 -18   19.40    4.20
  -1  -1  18   11.10    6.30
  -1  -1  18    8.90    3.10
  -1   1  18   10.70    3.70
  -1   1  18   13.60    3.40
  -1   1  18    3.20    4.80
   1   1 -18    5.70    3.20
  -1   1  18    9.80    3.50
   0  -1  18  384.46   20.30
   0  -1  18  420.76   19.80
   0  -1  18  431.96   26.70
   0  -1 -18  374.76   20.00
   0  -1  18  404.86   21.60
   0  -1  18  432.86   20.50
   0   1 -18  438.26   18.40
   0   1  18  413.76   20.40
   0   1  18  412.26   20.10
   0   1 -18  406.96   18.80
   0   1  18  427.46   27.00
   0   1  18  376.76   20.20
   0   1  18  414.66   21.40
   1  -1  18   78.19    8.40
   1  -1  18   68.59    8.70
   1  -1  18   71.09   11.40
   1  -1  18   63.29    8.70
   1   1  18   64.29    8.00
   1   1  18   68.29    8.00
   1   1  18   69.49    9.10
   1   1  18   82.09    9.20
   1   1  18   73.59   11.20
  -1   1 -18   65.89    8.00
  -1   1 -18   48.50    7.70
  -1   1 -18   56.99    8.70
   2  -1  18    7.20    3.50
  -2  -1 -18   11.50    5.90
  -2  -1 -18    4.50    3.30
  -2  -1 -18    2.10    4.40
   2  -1  18    5.00    6.10
   2  -1  18    5.40    5.20
   2  -1  18    9.50    4.50
   2   1  18    3.10    3.70
  -2   1 -18    3.40    5.30
   2   1  18    4.30    3.40
  -2   1 -18   14.80    4.90
   2   1  18    0.70    5.50
   2   1  18    7.20    4.60
  -3  -1 -18   11.00    4.10
  -3  -1 -18   -0.60    4.70
   3  -1  18    8.40    3.70
   3  -1  18    6.70   13.10
  -3  -1 -18    5.70    5.80
   3  -1  18    6.80    2.90
   3   1  18    3.40    2.90
   3   1  18    0.10    6.00
   3   1  18    8.80    3.90
  -3   1 -18    2.30    3.20
   4  -1  18    7.90    3.50
   4  -1  18    2.80    2.20
  -4  -1 -18   13.30    4.60
  -4  -1 -18    3.80    3.00
  -4   1 -18   13.90    3.50
   4   1  18    5.30    3.00
   4   1  18    6.00    2.80
  -4  -2  18   19.90    3.60
   4  -2 -18   16.60    3.80
   4  -2 -18   19.80    4.90
   4   2 -18   15.40    4.00
   4   2 -18   19.80    4.40
  -4   2  18   20.40    4.00
  -4   2  18   25.20    4.30
  -3  -2  18    4.60    3.60
   3  -2 -18   -1.30    2.70
  -3  -2  18   12.70    5.80
  -3  -2  18    4.80    2.40
   3  -2 -18    3.30    2.50
   3   2 -18    6.50    3.00
  -3   2  18    3.00    2.30
   3   2 -18    6.40    3.70
  -3   2  18    2.20    3.50
  -3   2  18    0.40    1.50
  -3   2  18   11.20    7.10
  -2  -2  18  119.89   10.00
  -2  -2  18  111.89    7.40
  -2  -2  18  114.09   10.50
   2  -2 -18  114.89   10.40
   2  -2 -18  114.19   10.20
  -2   2  18  102.29    8.60
  -2   2  18  116.49   10.40
  -2   2  18   98.49   10.20
  -2   2  18  113.89   13.80
   2   2 -18  119.09    9.40
  -1  -2  18   52.39    9.80
  -1  -2  18   63.79    7.80
   1  -2 -18   68.39    6.90
  -1  -2  18   72.09   10.70
  -1  -2  18   71.09    7.60
   1   2 -18   70.49    8.20
  -1   2  18   56.49   10.00
  -1   2  18   67.49    7.40
  -1   2  18   69.69    8.40
   0  -2  18  100.29    8.60
   0  -2 -18  117.79    8.80
   0  -2  18  106.19   10.70
   0  -2  18   97.09    9.10
   0  -2  18   99.59   10.00
   0  -2  18  108.59   13.10
   0   2  18  105.79    9.70
   0   2  18  102.89    9.90
   0   2 -18   99.19    9.00
   0   2  18   78.29    8.70
   0   2  18  106.79   13.30
   0   2  18   84.69   10.30
   1  -2  18   12.70    4.50
   1  -2  18   10.00    6.40
  -1  -2 -18   13.60    3.70
   1  -2  18    9.40    3.80
   1  -2  18   17.30    5.00
   1   2  18   17.10    5.80
   1   2  18   12.30    4.10
   1   2  18   13.60    4.70
  -1   2 -18    8.90    4.80
   1   2  18   11.40    5.00
   1   2  18   26.00    5.30
   2  -2  18   95.09   13.60
  -2  -2 -18  104.29   11.60
   2  -2  18   97.09   10.70
  -2  -2 -18   86.19    9.30
   2  -2  18   93.49   11.10
   2  -2  18  108.79   18.80
   2   2  18  112.39   11.30
   2   2  18   97.59   10.70
   2   2  18   85.49   12.70
   2   2  18   88.69   10.50
  -3  -2 -18   20.10    5.60
  -3  -2 -18   14.10    6.00
  -3  -2 -18   16.70    5.40
   3  -2  18   17.20    5.40
   3  -2  18   15.40    4.70
   3   2  18   19.10    5.20
   3   2  18   29.10    6.50
  -3   2 -18   32.90    5.70
   3   2  18   17.40    7.60
   4  -2  18    4.20    3.60
   4  -2  18    3.50    2.50
  -4  -2 -18   -4.40    2.30
  -4  -2 -18   -1.30    2.00
   4   2  18    0.60    2.00
  -4   2 -18   -0.60    1.90
   4  -3 -18    0.40    2.10
  -4  -3  18    1.40    1.30
   4  -3 -18    1.40    2.40
   4   3 -18    0.80    2.20
  -4   3  18    0.50    1.40
  -3  -3  18   -7.20    5.80
  -3  -3  18    7.60    2.30
   3  -3 -18    3.90    3.10
   3  -3 -18    2.50    2.70
  -3   3  18    4.10    3.10
   3   3 -18    2.80    3.40
   3   3 -18    9.40    3.50
  -3   3  18    4.50    4.80
  -3   3  18    1.80    1.90
   2  -3 -18    3.40    3.00
   2  -3 -18    8.20    3.50
  -2  -3  18    0.00    3.20
  -2  -3  18   -0.10    2.90
   2   3 -18    0.60    3.20
  -2   3  18    6.80    3.90
  -2   3  18    4.10    2.80
  -2   3  18   13.10    4.50
  -1  -3  18   13.50    3.70
  -1  -3  18   22.70    6.30
  -1  -3  18   14.00    4.30
   1  -3 -18   21.70    5.10
  -1  -3  18   22.00    6.60
   1  -3 -18   16.60    4.00
  -1   3  18   22.80    5.10
  -1   3  18   19.90    4.60
  -1   3  18   17.80    7.50
   0  -3  18  159.88   11.20
   0  -3  18  161.58   13.90
   0  -3 -18  140.89   10.40
   0  -3  18  181.08   12.60
   0  -3  18  157.28   15.80
   0  -3  18  154.18   13.00
   0   3  18  154.98   12.80
   0   3  18  160.08   13.50
   0   3  18  161.78   12.30
   0   3  18  151.48   16.60
   0   3  18  172.58   12.40
   1  -3  18  130.59   12.70
   1  -3  18  101.39   10.30
   1  -3  18  116.69   11.60
   1  -3  18  139.09   15.90
  -1  -3 -18  129.59   10.60
   1   3  18  126.59   10.90
  -1   3 -18  113.89   11.40
   1   3  18  133.69   12.00
   1   3  18  117.89   11.60
   1   3  18  117.89   14.80
  -2  -3 -18   -1.00    4.80
   2  -3  18    7.10    7.10
  -2  -3 -18   11.40    4.50
   2  -3  18   10.10    4.70
  -2  -3 -18   20.70    5.60
   2  -3  18    9.80    4.10
   2   3  18    5.00    3.50
   2   3  18   21.60    6.40
   2   3  18    8.20    3.80
   2   3  18    9.10    5.60
  -3  -3 -18   21.10    5.80
   3  -3  18   15.80    5.20
  -3  -3 -18   20.40    5.10
  -3  -3 -18   11.60    4.80
   3  -3  18   16.90    5.40
   3   3  18    9.90    4.70
  -3   3 -18   15.80    4.50
   3   3  18   16.80    5.30
   4  -3  18    3.20    5.00
  -4  -3 -18   13.30    3.20
   4  -3  18    9.30    3.60
  -4  -3 -18    8.80    3.70
  -4   3 -18   10.30    2.90
   4   3  18   10.40    3.10
   4   3  18   13.60    3.70
   4  -4 -18   -1.70    2.50
   4  -4 -18    1.80    2.20
   4   4 -18   -0.20    2.00
  -4   4  18    3.10    1.70
   4   4 -18    6.70    2.70
   3  -4 -18    3.90    3.10
  -3  -4  18    7.40    2.10
   3  -4 -18    0.20    2.30
  -3   4  18    2.90    4.20
  -3   4  18    3.40    2.70
   3   4 -18    8.10    3.30
   3   4 -18    2.50    2.80
   2  -4 -18   19.30    5.40
  -2  -4  18    5.80    7.60
  -2  -4  18    5.20    5.00
   2  -4 -18   11.10    4.20
  -2   4  18    8.00    6.00
  -2   4  18   18.90    5.40
   2   4 -18    8.40    3.40
  -2   4  18   16.70    4.70
   1  -4 -18  102.99   10.30
   1  -4 -18  113.49   10.20
  -1  -4  18  103.19    9.70
  -1  -4  18  102.39    9.50
  -1  -4  18   95.79   12.50
  -1   4  18  110.79   13.80
  -1   4  18  102.69   10.10
  -1   4  18   96.89    9.40
   0  -4  18   25.10    8.50
   0  -4 -18   23.10    5.50
   0  -4  18   14.10    5.10
   0  -4 -18   21.20    5.10
   0  -4  18   14.40    5.40
   0  -4  18   18.90    6.10
   0   4  18   17.30    3.90
   0   4  18   17.50    5.00
   0   4  18   16.30    5.90
   0   4  18    9.90    6.00
   1  -4  18   77.39   11.90
   1  -4  18   88.19   10.80
  -1  -4 -18   81.99   10.30
   1  -4  18   81.69    9.70
  -1  -4 -18   86.39    9.40
  -1  -4 -18   84.49   10.80
   1  -4  18   82.99   13.00
   1   4  18   88.69    9.20
   1   4  18   73.89   12.00
   1   4  18   85.39    9.60
   1   4  18   83.49   10.10
  -2  -4 -18   40.80    8.50
   2  -4  18   45.20    8.10
   2  -4  18   43.70    7.60
  -2  -4 -18   48.10    8.10
  -2  -4 -18   39.40    7.00
   2   4  18   31.10    8.50
   2   4  18   40.40    8.40
   2   4  18   34.20    6.80
  -2   4 -18   37.00    7.90
  -3  -4 -18   42.80    7.10
   3  -4  18   50.39    8.00
  -3  -4 -18   52.09    7.50
   3  -4  18   37.80    7.40
  -3  -4 -18   48.80    9.40
   3   4  18   43.00    7.20
  -3   4 -18   50.19    6.80
   3   4  18   44.10    7.00
  -4  -4 -18    1.70    2.00
   4  -4  18    4.80    3.00
  -4  -4 -18    6.20    3.00
   4   4  18    8.40    2.90
  -4   4 -18    5.10    2.60
   4  -5 -18    1.80    1.70
  -4   5  18    0.60    0.80
   4   5 -18    0.10    1.90
   4   5 -18    4.20    2.30
   3  -5 -18   14.90    4.20
   3  -5 -18   14.10    3.90
  -3   5  18   12.30    4.70
  -3   5  18    9.60    3.40
   3   5 -18   24.10    5.10
   3   5 -18   12.60    4.40
   2  -5 -18   12.40    4.10
   2  -5 -18    8.20    3.70
  -2   5  18   13.50    4.20
  -2   5  18    6.10    4.40
  -2   5  18   17.10    5.60
   2   5 -18   18.60    4.60
   1  -5 -18    6.60    3.20
  -1  -5  18    6.90    4.50
   1  -5 -18    5.70    3.50
  -1   5  18    6.10    2.90
   1   5 -18    9.50    3.80
  -1   5  18    4.60    3.90
   0  -5  18    5.90   11.50
   0  -5 -18   13.60    4.00
   0  -5  18   18.40    6.70
   0  -5  18   14.30    5.30
   0  -5 -18   14.90    4.60
   0   5  18   19.90    7.20
   0   5  18   12.00    3.90
   0   5  18    7.40    3.80
  -1  -5 -18  189.98   16.50
  -1  -5 -18  182.18   13.30
   1  -5  18  171.78   13.80
   1  -5  18  182.68   16.50
  -1  -5 -18  173.98   14.40
   1   5  18  180.48   13.70
   1   5  18  183.28   18.20
   1   5  18  179.98   15.20
  -2  -5 -18   13.30    3.90
   2  -5  18   11.30    4.60
  -2  -5 -18    6.20    2.70
  -2  -5 -18    3.60    3.70
   2  -5  18   12.60    4.80
  -2   5 -18   13.40    4.20
   2   5  18    2.00    6.10
   2   5  18    7.20    3.20
   2   5  18    5.40    3.10
  -3  -5 -18    1.20    1.90
  -3  -5 -18    6.20    5.20
   3  -5  18   -2.20    2.30
   3  -5  18   -0.60    2.90
  -3  -5 -18    1.20    2.60
  -3   5 -18    5.40    3.20
   3   5  18    5.50    2.80
   3   5  18    4.10    2.90
   3  -6 -18    0.60    2.90
   3  -6 -18   -0.80    1.70
  -3   6  18   -1.20    1.60
   3   6 -18   -5.70    3.10
  -3   6  18   -4.00    2.00
   2  -6 -18   -2.20    1.90
   2  -6 -18    5.20    2.70
  -2   6  18    4.80    2.80
   2   6 -18    2.00    2.50
  -2   6  18   -2.10    2.50
   1  -6 -18   10.80    4.40
   1  -6 -18   14.30    4.60
  -1   6  18   14.40    4.30
   1   6 -18   13.70    4.30
  -1   6  18   12.60    7.30
   0  -6 -18   42.40    6.80
   0  -6 -18   48.30    7.30
   0   6  18   37.70    6.40
   0   6 -18   34.40    6.80
   0   6  18   46.10    9.30
   1  -6  18    1.00    3.10
   1  -6  18   -1.70    3.30
  -1  -6 -18    2.20    3.90
  -1  -6 -18    7.60    4.10
  -1  -6 -18    0.00    1.60
   1   6  18    2.00    2.50
   1   6  18    8.90    5.10
   1   6  18   -3.30    2.90
  -1   6 -18   -4.90    3.10
  -2  -6 -18    2.80    3.10
   2  -6  18   11.40    4.10
   2  -6  18    5.10    3.80
  -2  -6 -18    6.30    3.40
   2   6  18    5.80    3.20
  -2   6 -18    2.00    3.50
   2   6  18    4.60    3.30
  -3  -6 -18   27.50    5.60
  -3  -6 -18   30.00    5.20
   3  -6  18   21.90    5.40
   3   6  18   22.40    4.90
   3   6  18   21.60    4.50
   3  -7 -18    3.60    2.30
  -3   7  18    2.90    2.40
  -3   7  18    5.50    2.70
   3   7 -18    7.20    3.70
   3   7 -18    3.00    2.20
   2  -7 -18   -2.40    2.30
   2  -7 -18    6.90    2.80
  -2   7  18    1.70    2.90
   2   7 -18    2.20    2.40
  -2   7  18    6.20    2.70
   1  -7 -18    6.30    3.20
   1  -7 -18    8.60    3.50
   1   7 -18    3.10    2.80
  -1   7  18    0.60    4.30
  -1   7  18    6.70    4.00
   0  -7 -18    2.00    2.00
   0  -7 -18    0.00    2.30
   0  -7 -18    0.00    3.10
   0   7  18    1.50    2.50
   0   7  18    0.40    3.80
  -1  -7 -18   22.80    6.40
   1  -7  18   23.70    5.60
  -1  -7 -18   26.70    5.70
  -1  -7 -18   29.70    6.40
   1   7  18   31.80    6.40
  -1   7 -18   37.30    6.10
   1   7  18   30.40    7.90
   1   7  18   28.30    6.20
  -2  -7 -18   12.80    5.70
  -2  -7 -18    4.80    2.60
  -2  -7 -18    6.80    3.30
   2  -7  18    3.10    2.70
  -2   7 -18    6.80    3.00
   2   7  18    6.90    3.30
   3  -7  18    9.70    2.90
  -3  -7 -18    2.20    3.00
  -3  -7 -18    5.30    2.70
   3   7  18    2.70    2.50
  -3   7 -18    7.00    2.40
   2  -8 -18    4.30    3.80
   2  -8 -18    9.10    2.50
   2   8 -18    1.30    1.90
  -2   8  18   10.10    4.90
  -2   8  18   -1.30    2.10
   1  -8 -18    3.30    2.30
   1  -8 -18   -0.30    2.20
   1   8 -18    3.90    2.70
  -1   8  18    1.40    3.40
   0  -8 -18   -1.40    5.00
   0  -8 -18    5.90    2.60
   0  -8 -18    0.40    2.30
   0   8  18    5.00    3.30
   0   8 -18   -1.90    2.20
   0   8  18    2.60    2.30
  -1  -8 -18    4.20    2.30
  -1   8 -18    4.40    2.80
   1   8  18    4.00    4.30
   1   8  18    4.50    2.60
   2  -8  18    0.40    2.90
  -2  -8 -18    2.90    3.00
  -2  -8 -18    1.60    2.00
   2   8  18   -2.10    2.40
   2   8  18    3.30    3.00
  -2   8 -18    5.90    2.60
  -2   9  18    0.10    2.20
   1  -9 -18   -0.50    1.60
  -1   9  18    4.40    3.00
   1   9 -18   -0.40    2.00
  -1   9  18   -0.30    1.30
   0  -9 -18    0.90    2.10
   0   9  18    4.30    1.90
   0   9  18    0.60    2.20
   0   9 -18   -3.80    2.00
  -1  -9 -18    5.90    2.80
   1   9  18    4.70    2.10
  -1   9 -18    7.20    2.50
   4   0 -19    0.90    2.10
  -4   0  19   -0.60    1.50
   4   0 -19   -1.00    1.90
   3   0 -19   75.39    8.60
  -3   0  19   86.89    8.80
  -3   0  19   51.39   10.20
   3   0 -19   83.29    9.10
  -3   0  19   78.89    7.00
  -2   0  19    7.40    5.20
   2   0 -19   -1.80    2.30
  -2   0  19   -2.10    1.90
  -2   0  19   -4.40    2.30
  -1   0  19  233.48   19.80
  -1   0  19  222.58   17.00
  -1   0  19  238.78   15.90
  -1   0  19  274.57   16.00
   1   0 -19  240.58   13.00
  -1   0  19  279.47   16.50
   0   0  19    3.50    2.40
   0   0  19    3.40    2.40
   0   0  19   -3.80    2.40
   0   0  19   -2.30    3.10
   1   0  19  227.48   15.50
   1   0  19  283.17   22.70
   1   0  19  262.17   17.30
   1   0  19  248.38   16.40
   1   0  19  278.67   17.80
  -1   0 -19  251.67   16.70
  -2   0 -19   -0.10    3.60
   2   0  19   -2.20    2.50
  -2   0 -19   -0.30    2.80
   2   0  19   -0.40    2.30
   2   0  19    3.70    4.50
  -3   0 -19   29.50    6.70
   3   0  19   36.40   11.90
   3   0  19   34.80    7.20
   3   0  19   44.50    7.70
  -4   0 -19    1.30    2.30
   4   0  19    0.20    2.30
   4   0  19    3.00    2.50
  -4  -1  19    2.80    1.60
   4  -1 -19    6.00    2.90
  -4  -1  19    2.60    2.40
   4  -1 -19    7.80    3.00
   4   1 -19   11.30    3.20
  -4   1  19   -0.20    1.80
  -4   1  19    3.30    1.50
   4   1 -19    3.40    2.40
  -3  -1  19    2.60    2.50
   3  -1 -19    5.10    2.80
   3  -1 -19    6.50    2.90
  -3  -1  19    2.60    4.70
  -3  -1  19    2.50    1.90
  -3   1  19   -1.20    1.30
   3   1 -19   -0.50    2.10
   3   1 -19    1.20    3.10
  -3   1  19    1.90    1.90
   2  -1 -19   12.20    3.90
  -2  -1  19   11.30    3.00
   2  -1 -19    3.70    4.60
  -2  -1  19   13.60    3.60
  -2  -1  19    9.60    4.00
  -2  -1  19   10.40    7.00
   2   1 -19   12.10    3.30
  -2   1  19   11.10    6.60
  -2   1  19   10.70    3.40
   1  -1 -19  742.33   26.80
  -1  -1  19  705.23   29.30
  -1  -1  19  747.53   37.20
  -1  -1  19  731.73   29.40
  -1  -1  19  780.42   32.20
  -1   1  19  780.72   37.90
  -1   1  19  719.83   30.00
  -1   1  19  709.03   29.40
  -1   1  19  708.13   29.50
   0  -1  19    8.60    3.30
   0  -1  19   -1.70    2.80
   0  -1  19    6.10    2.70
   0  -1  19    6.20    3.90
   0  -1  19   10.70    6.00
   0   1 -19   -0.40    3.10
   0   1  19   12.50    4.60
   0   1  19    5.40    3.30
   0   1  19   12.90    4.30
   0   1  19    5.20    4.70
   0   1  19    3.30    2.60
   1  -1  19  168.98   12.60
  -1  -1 -19  132.39   12.90
   1  -1  19  137.19   12.60
   1  -1  19  154.18   13.00
   1  -1  19  150.38   16.80
   1   1  19  141.39   12.40
   1   1  19  166.08   13.20
   1   1  19  158.18   12.90
   1   1  19  143.79   13.10
   1   1  19  164.68   16.60
  -1   1 -19  176.08   14.00
  -1   1 -19  128.89   11.30
   2  -1  19    7.60    3.40
   2  -1  19    4.80    3.10
  -2  -1 -19    9.80    3.90
  -2  -1 -19    7.30    3.80
   2  -1  19    8.40    7.50
   2   1  19    7.70    5.60
   2   1  19    6.60    3.80
   2   1  19   10.20    4.80
   2   1  19    4.40    2.90
   3  -1  19    5.30    3.50
  -3  -1 -19    4.40    6.70
   3  -1  19   16.20    5.20
  -3  -1 -19   14.20    4.40
   3   1  19   12.70    4.60
   3   1  19   -1.20    6.60
   3   1  19    7.70    3.60
  -3   1 -19    9.30    3.40
   4  -1  19    7.10    2.90
  -4  -1 -19    5.10    2.90
   4  -1  19    1.70    2.40
  -4  -1 -19   14.20    4.30
   4   1  19    6.00    3.30
   4   1  19    4.40    3.00
  -4   1 -19    4.50    2.80
  -4  -2  19    3.70    1.50
   4  -2 -19    8.60    3.00
   4  -2 -19    7.30    3.20
   4   2 -19    6.30    2.70
   4   2 -19    8.10    2.90
  -4   2  19    7.60    2.90
   3  -2 -19   32.00    5.90
   3  -2 -19   39.00    6.70
  -3  -2  19   46.60    7.00
  -3  -2  19   37.60    4.60
  -3   2  19   46.80    6.60
  -3   2  19   36.30    5.40
  -3   2  19   23.10    8.10
   3   2 -19   44.70    6.60
   3   2 -19   43.70    7.30
   2  -2 -19    1.70    2.70
  -2  -2  19    4.10    3.40
  -2  -2  19   -1.00    2.20
  -2   2  19   -1.70    1.90
  -2   2  19    1.20    2.50
  -2   2  19   -0.30    3.60
   2   2 -19    1.60    2.60
  -2   2  19    6.20    4.60
  -1  -2  19  115.89    9.90
  -1  -2  19  113.19   12.50
  -1  -2  19  126.39   10.70
   1  -2 -19  107.29    9.00
  -1  -2  19  125.59   13.90
  -1   2  19  117.89   10.50
  -1   2  19  115.89   11.20
  -1   2  19  135.69   14.70
  -1   2  19  119.09   10.00
   0  -2  19   80.69    9.70
   0  -2 -19  101.99    8.40
   0  -2  19   95.59    9.20
   0  -2  19   98.19   12.30
   0  -2  19   95.19   10.80
   0  -2  19  101.19    9.80
   0   2  19   98.69    9.40
   0   2  19  103.99   13.00
   0   2  19  100.09   10.00
   0   2  19  105.09    9.90
   0   2  19   82.09   10.00
  -1  -2 -19  284.57   15.60
   1  -2  19  251.17   16.90
   1  -2  19  288.27   23.90
   1  -2  19  269.87   18.00
   1  -2  19  318.37   19.80
  -1   2 -19  276.17   17.80
   1   2  19  281.87   17.30
   1   2  19  276.37   22.60
   1   2  19  290.07   18.10
   1   2  19  269.17   17.60
   1   2  19  265.97   18.30
   2  -2  19   40.20    9.40
   2  -2  19   33.20    7.60
  -2  -2 -19   49.99    7.30
   2  -2  19   46.20    7.90
   2  -2  19   38.10   13.90
  -2  -2 -19   28.20    7.00
   2   2  19   36.40    6.70
   2   2  19   31.70    7.00
   2   2  19   43.30    9.10
   2   2  19   35.80    7.20
   3  -2  19   35.10    6.60
   3  -2  19   40.00    7.20
  -3  -2 -19   29.70    6.80
  -3  -2 -19   36.60    7.00
  -3  -2 -19   40.90    8.90
   3   2  19   36.30    6.90
   3   2  19   14.10    9.50
   3   2  19   43.70    7.30
  -3   2 -19   40.10    6.90
  -4  -2 -19    3.00    3.10
   4  -2  19    1.90    3.20
  -4  -2 -19    5.50    2.80
   4  -2  19   -0.50    2.10
   4   2  19   -0.80    2.70
   4   2  19    2.10    1.90
  -4   2 -19   -3.30    2.20
   4  -3 -19    5.50    2.90
   4  -3 -19   -3.20    2.20
   4   3 -19    2.20    2.40
  -4   3  19    1.80    1.40
   4   3 -19    3.40    2.60
   3  -3 -19    4.00    2.30
  -3  -3  19    2.20    4.70
   3  -3 -19    2.90    2.60
   3   3 -19    8.90    4.00
   3   3 -19   -1.00    2.20
  -3   3  19    4.30    4.20
  -3   3  19    1.00    1.50
  -2  -3  19   72.79    7.90
   2  -3 -19   89.09    9.60
  -2  -3  19   72.29    9.90
   2  -3 -19   88.29    9.00
  -2   3  19   89.59    9.70
  -2   3  19   85.89    9.00
   2   3 -19   81.69    8.40
  -2   3  19   84.99   11.80
  -1  -3  19  109.99   12.40
   1  -3 -19  111.79    9.60
  -1  -3  19  105.09    9.40
   1  -3 -19   99.79   10.30
  -1  -3  19   95.19   12.80
  -1  -3  19   93.89    9.70
  -1   3  19  105.49   10.30
  -1   3  19  108.89   10.10
  -1   3  19  123.09   14.70
   0  -3  19   20.50    6.80
   0  -3  19   18.00    4.70
   0  -3  19   18.90    4.70
   0  -3  19   17.40    5.70
   0  -3  19   20.20    5.20
   0  -3 -19   28.20    5.20
   0   3  19   13.80    6.60
   0   3  19   22.70    5.10
   0   3  19   22.00    6.10
   0   3  19   15.40    4.50
   0   3  19   21.00    5.70
  -1  -3 -19   89.29    9.20
   1  -3  19   95.39   11.10
   1  -3  19   94.19   13.40
   1  -3  19   91.69   10.20
   1  -3  19  101.69   10.00
   1   3  19   87.69   10.50
   1   3  19   79.39    9.10
   1   3  19   87.09   10.30
   1   3  19   91.19   12.80
   2  -3  19   68.59   14.60
  -2  -3 -19   35.70    7.40
  -2  -3 -19   40.70    7.00
   2  -3  19   41.50    8.20
   2  -3  19   39.10    8.70
  -2  -3 -19   36.10    8.50
   2   3  19   39.90    9.50
   2   3  19   40.50    8.00
   2   3  19   48.10    7.90
   2   3  19   52.39    8.60
   3  -3  19   14.40    4.80
  -3  -3 -19    2.10    3.50
  -3  -3 -19    4.30    2.70
   3  -3  19    0.10    2.20
  -3  -3 -19   11.00    5.70
  -3   3 -19    4.80    3.90
   3   3  19    8.10    3.60
   3   3  19    2.70    2.90
   4  -3  19    7.90    4.60
  -4  -3 -19   -3.00    2.40
  -4  -3 -19    4.40    2.60
  -4   3 -19    1.70    2.10
   4   3  19   -0.60    1.40
   4   3  19   -1.30    3.20
   4  -4 -19    1.50    2.10
   4  -4 -19   -2.10    3.30
   4   4 -19   -4.20    2.20
   3  -4 -19   -1.20    2.30
   3  -4 -19    8.80    3.30
   3   4 -19    0.10    1.90
  -3   4  19   -0.30    1.90
  -3   4  19    3.10    3.80
   3   4 -19    8.00    4.00
   2  -4 -19   24.70    5.70
   2  -4 -19   17.10    4.80
  -2  -4  19    7.80    5.20
   2   4 -19   25.10    5.70
  -2   4  19   23.40    5.30
  -2   4  19   29.20    6.60
  -2   4  19   14.90    6.80
   1  -4 -19   12.20    4.20
  -1  -4  19   12.10    4.10
  -1  -4  19    4.70    5.70
   1  -4 -19   14.90    4.50
  -1  -4  19   14.60    5.70
  -1   4  19   13.10    3.60
  -1   4  19   10.30    3.90
  -1   4  19    9.70    5.90
   0  -4  19   26.60    5.90
   0  -4 -19   17.80    4.60
   0  -4  19   18.80    6.40
   0  -4  19   16.70    6.20
   0  -4 -19   15.70    4.80
   0  -4  19   20.80    7.50
   0   4  19   27.90    7.30
   0   4  19   15.20    4.60
   0   4  19   22.10    7.10
   0   4  19   35.40    6.50
   0   4  19   22.00    5.00
   1  -4  19    9.90    7.00
  -1  -4 -19   21.60    5.40
   1  -4  19    7.00    4.00
  -1  -4 -19    4.40    3.50
   1  -4  19   18.90    8.40
   1  -4  19   11.40    4.80
  -1  -4 -19   13.80    4.10
   1   4  19   13.50    4.20
   1   4  19   10.20    7.00
   1   4  19    8.10    3.50
   1   4  19    6.80    3.90
  -2  -4 -19   17.40    5.30
  -2  -4 -19   19.40    5.80
   2  -4  19   15.50    4.70
  -2  -4 -19   25.50    5.90
   2  -4  19   30.60    6.90
   2   4  19   21.50    5.70
  -2   4 -19   13.00    4.80
   2   4  19   23.10    6.10
   2   4  19   19.70    7.70
  -3  -4 -19   21.50    4.90
  -3  -4 -19   18.40    5.00
   3  -4  19   13.50    4.90
   3  -4  19    9.80    3.80
  -3  -4 -19   12.80    6.70
   3   4  19   23.70    5.60
   3   4  19    9.00    3.90
  -3   4 -19   19.70    4.40
   4  -5 -19    4.10    2.20
  -4   5  19   -1.70    1.20
   4   5 -19   -3.00    2.10
   4   5 -19    5.10    2.60
   3  -5 -19    2.20    1.80
   3  -5 -19    1.50    2.20
  -3   5  19    1.60    1.70
   3   5 -19    0.80    3.70
  -3   5  19    4.40    4.10
   3   5 -19   -2.60    1.90
   2  -5 -19   97.29   10.40
   2  -5 -19   88.79    9.10
  -2   5  19   88.49   12.70
  -2   5  19   82.19    8.70
   2   5 -19   89.09    9.10
   1  -5 -19   -2.40    2.60
   1  -5 -19   -0.50    2.30
  -1  -5  19    1.70    4.20
  -1   5  19    1.70    3.70
  -1   5  19   -4.00    2.50
   1   5 -19   -1.50    3.20
   0  -5  19   -3.90   10.80
   0  -5 -19   -1.70    2.80
   0  -5  19    4.20    4.60
   0  -5  19    2.60    3.90
   0  -5 -19    3.40    2.90
   0   5  19    7.20    2.80
   0   5  19   -4.00    3.40
   0   5  19    0.20    2.90
   0   5  19    2.00    3.90
  -1  -5 -19   14.50    5.70
  -1  -5 -19   35.60    6.30
   1  -5  19   25.10    6.80
   1  -5  19   25.40    6.30
  -1  -5 -19   33.20    7.70
   1   5  19   15.10    7.30
   1   5  19   30.90    6.80
   1   5  19   24.00    6.30
  -2  -5 -19   34.30    8.10
  -2  -5 -19   46.00    7.10
   2  -5  19   57.19    8.10
   2  -5  19   54.99    8.70
  -2  -5 -19   48.40    8.00
  -2   5 -19   51.39    7.90
   2   5  19   32.10    9.30
   2   5  19   47.90    7.20
   2   5  19   40.00    7.10
  -3  -5 -19    4.20    2.80
   3  -5  19    7.00    3.70
  -3  -5 -19    5.70    3.30
   3  -5  19    6.30    3.40
  -3   5 -19   14.30    3.70
   3   5  19    3.20    2.80
   3   5  19    4.90    2.70
   3  -6 -19    0.40    2.60
   3  -6 -19    0.00    1.90
   3   6 -19    1.50    2.50
   3   6 -19    0.40    3.10
  -3   6  19    3.30    3.30
  -3   6  19    2.70    2.00
   2  -6 -19   12.10    4.00
   2  -6 -19    4.60    3.00
   2   6 -19    8.80    3.60
  -2   6  19    6.30    4.30
  -2   6  19   10.70    3.60
   1  -6 -19   -2.80    1.80
   1  -6 -19    3.50    3.00
  -1   6  19    1.30    3.80
  -1   6  19    7.00    3.30
   1   6 -19   -3.40    2.80
   0  -6 -19    7.00    3.30
   0  -6 -19    4.30    3.00
   0   6 -19   16.40    4.50
   0   6  19    0.90    4.00
  -1  -6 -19    9.70    5.20
  -1  -6 -19   12.60    4.10
  -1  -6 -19   16.10    5.10
   1  -6  19   16.90    5.30
   1  -6  19   10.40    5.30
  -1   6 -19   10.00    4.30
   1   6  19   10.40    3.60
   1   6  19   15.40    5.60
   1   6  19   19.60    6.70
   2  -6  19    1.70    3.00
  -2  -6 -19   -2.90    2.50
   2  -6  19    5.30    4.10
  -2  -6 -19    7.30    4.80
  -2  -6 -19   -0.40    2.10
  -2   6 -19   -1.60    3.30
   2   6  19    3.20    2.40
   2   6  19    1.90    2.40
  -3  -6 -19    3.70    2.70
   3  -6  19    1.20    2.30
  -3  -6 -19   -0.10    2.20
   3   6  19   -4.60    3.60
  -3   6 -19    4.50    2.60
   3   6  19    2.10    1.90
   3  -7 -19    0.50    1.70
  -3   7  19    0.70    2.90
  -3   7  19    4.60    2.90
   3   7 -19    4.60    2.30
  -3   7  19    1.20    2.10
   2  -7 -19   -3.20    2.10
  -2   7  19    0.80    2.90
  -2   7  19    3.60    2.50
   2   7 -19   -0.50    2.20
   1  -7 -19    2.70    2.40
   1   7 -19    0.90    3.00
  -1   7  19    2.60    3.50
  -1   7  19   -1.70    3.00
   0  -7 -19   11.40    4.70
   0  -7 -19   -0.80    2.10
   0  -7 -19    0.40    1.90
   0   7  19    1.30    3.10
   0   7 -19   -0.60    3.30
   0   7  19    1.10    2.10
  -1  -7 -19    8.60    3.60
  -1  -7 -19   11.10    5.10
  -1  -7 -19   13.00    3.60
   1  -7  19   -0.50    4.00
   1   7  19   18.40    4.30
   1   7  19    9.40    3.50
  -1   7 -19   12.20    4.20
   1   7  19    6.30    4.70
  -2  -7 -19   16.80    4.50
  -2  -7 -19   22.20    5.40
   2  -7  19   25.30    5.50
   2   7  19   15.90    4.10
  -2   7 -19   24.30    4.80
   2   7  19   20.20    4.50
   2  -8 -19   -1.00    4.20
   2  -8 -19   -0.50    1.70
   2   8 -19    2.60    2.10
  -2   8  19    3.40    2.40
   1  -8 -19    1.80    2.40
   1  -8 -19    6.20    2.90
  -1   8  19    5.10    3.30
   1   8 -19    7.60    2.70
   0  -8 -19   -2.20    2.10
   0  -8 -19   -3.70    1.80
   0   8 -19    2.10    2.40
   0   8  19   -0.90    2.20
  -1  -8 -19   13.70    3.40
  -1  -8 -19    9.40    3.00
   1   8  19    4.10    2.30
   1   8  19    5.40    3.80
  -1   8 -19   16.00    3.60
   2  -8  19   -0.20    3.40
  -2  -8 -19    0.60    2.00
  -2  -8 -19    2.60    3.00
   2   8  19   -0.70    2.70
   2   8  19   -2.20    3.20
  -2   8 -19   -4.20    2.40
   1  -9 -19    6.00    2.50
  -1   9  19   -0.60    1.60
  -1   9  19    3.60    1.90
   0  -9 -19    3.10    1.80
   0   9  19    1.40    1.80
   0   9 -19    2.50    2.80
   0   9  19    0.20    2.90
  -1  -9 -19    3.80    2.40
   1   9  19   -0.20    1.60
  -1   9 -19   -3.30    2.30
   4   0 -20   -0.60    1.80
  -4   0  20   -1.50    1.20
  -4   0  20   -2.30    2.00
  -3   0  20    0.80    2.00
   3   0 -20    5.20    3.70
   3   0 -20    2.00    2.60
  -3   0  20    0.90    1.80
  -2   0  20   29.70    5.40
  -2   0  20   21.90    7.70
   2   0 -20   29.20    5.40
  -2   0  20   29.20    6.20
   1   0 -20    8.20    3.80
  -1   0  20   -1.00    3.80
  -1   0  20    7.00    5.20
  -1   0  20   -0.80    3.60
  -1   0  20    0.80    2.10
   0   0  20  189.28   14.20
   0   0 -20  201.78   14.10
   0   0  20  196.48   13.90
   0   0  20  197.68   13.80
   0   0  20  173.18   17.80
   0   0  20  182.88   13.70
  -1   0 -20   14.60    4.70
   1   0  20    4.80    4.20
   1   0  20   -1.30    2.40
   1   0  20    2.80    2.40
  -2   0 -20   95.09   11.40
  -2   0 -20  116.89    9.80
   2   0  20  112.79   13.80
   2   0  20  109.19   11.60
   2   0  20  100.79   11.80
   2   0  20   92.59   13.20
   3   0  20   -2.00    2.90
   3   0  20    3.50    9.90
   3   0  20   -2.00    2.30
  -4   0 -20    7.00    2.60
   4   0  20    0.20    2.10
   4   0  20    0.40    2.50
   4  -1 -20    0.70    2.00
   4  -1 -20    2.40    2.10
  -4  -1  20   -1.90    2.60
  -4  -1  20    0.00    1.20
   4   1 -20   -1.80    1.90
  -4   1  20    5.30    2.40
   4   1 -20    5.70    2.30
   3  -1 -20    0.80    3.10
   3  -1 -20    2.10    2.00
  -3  -1  20    1.00    1.80
  -3  -1  20    0.20    1.80
  -3   1  20    2.90    2.00
  -3   1  20    2.00    2.00
   3   1 -20    0.90    2.20
  -2  -1  20   15.20    6.90
  -2  -1  20    9.80    4.20
   2  -1 -20   20.80    4.90
   2  -1 -20   17.50    5.20
  -2  -1  20   12.20    4.20
  -2   1  20    7.00    3.70
  -2   1  20   25.00    8.40
  -2   1  20    9.50    4.00
   1  -1 -20    8.10    3.60
  -1  -1  20   12.00    5.80
  -1  -1  20   10.70    3.80
  -1  -1  20   12.60    6.00
  -1  -1  20    6.10    3.20
  -1   1  20    7.70    5.20
  -1   1  20    5.50    3.70
  -1   1  20    7.80    3.10
   0  -1  20  364.76   19.30
   0  -1  20  362.06   19.80
   0  -1  20  352.06   19.70
   0  -1  20  355.86   20.80
   0  -1  20  355.06   25.90
   0   1  20  350.96   19.80
   0   1  20  372.56   20.30
   0   1  20  342.97   19.20
   0   1  20  384.76   26.90
   0   1  20  343.17   20.00
   1  -1  20  103.79   10.90
   1  -1  20   90.09   13.90
   1  -1  20  100.19    9.70
  -1  -1 -20  109.59    9.60
   1  -1  20  115.29   11.80
   1   1  20  114.79   11.50
   1   1  20  104.09   10.70
   1   1  20   94.09   13.20
   1   1  20   92.09    9.70
  -1   1 -20   85.19   10.70
  -1   1 -20  109.29   10.70
  -2  -1 -20    8.70    5.30
   2  -1  20    9.00    5.80
   2  -1  20   11.50    4.70
   2  -1  20   19.50   10.00
   2  -1  20   10.30    4.30
  -2  -1 -20   20.70    4.90
   2   1  20   13.40    6.20
   2   1  20   15.10    6.30
   2   1  20    8.30    3.90
  -2   1 -20   21.10    5.50
   2   1  20    9.50    4.20
   3  -1  20    2.10    2.30
  -3  -1 -20    7.00    2.90
   3  -1  20    2.00    3.00
  -3  -1 -20    2.10    8.30
   3   1  20    5.50    2.80
   3   1  20   -5.90    6.00
  -3   1 -20    0.60    3.10
   3   1  20   -3.10    2.10
   4  -1  20   28.20    5.30
   4  -1  20   46.60    6.00
  -4  -1 -20   50.49    5.90
   4   1  20   40.90    6.30
   4   1  20   41.70    5.60
  -4   1 -20   44.40    5.80
   4  -2 -20   -0.40    2.40
   4  -2 -20    2.40    1.70
   4   2 -20    3.30    2.20
  -4   2  20    3.60    1.80
   4   2 -20    4.60    2.40
   3  -2 -20   48.60    6.90
  -3  -2  20   35.00    6.10
   3  -2 -20   44.20    7.10
  -3   2  20   40.70    6.20
   3   2 -20   45.90    6.50
   3   2 -20   52.59    7.40
   2  -2 -20   36.10    6.30
   2  -2 -20   34.20    7.60
  -2  -2  20   38.30    6.20
  -2  -2  20   43.80    8.30
   2   2 -20   41.40    6.20
  -2   2  20   33.90    6.90
  -2   2  20   41.40    8.70
  -2   2  20   38.90    6.10
  -2   2  20   45.00    8.70
   1  -2 -20   37.40    6.10
  -1  -2  20   26.40    6.10
  -1  -2  20   30.70    5.80
  -1  -2  20   40.40    8.90
  -1   2  20   34.20    7.80
  -1   2  20   28.30    6.40
  -1   2  20   33.00    6.50
  -1   2  20   31.60    5.70
   0  -2  20    8.90    6.30
   0  -2  20   11.50    5.30
   0  -2  20   24.50    5.90
   0  -2  20   22.80    5.20
   0  -2 -20   19.10    4.20
   0  -2  20   27.70    6.00
   0   2  20   20.30    5.10
   0   2  20   21.70    6.60
   0   2  20   17.10    5.30
   0   2  20   11.50    4.00
   0   2  20   13.70    4.60
   1  -2  20  101.29   10.50
   1  -2  20  115.79   11.80
   1  -2  20   98.19   13.90
   1  -2  20  106.19   11.30
  -1  -2 -20  110.29    9.70
   1   2  20  109.89   14.40
   1   2  20   94.89   10.90
   1   2  20   98.99   10.60
   1   2  20  101.49   10.40
   2  -2  20   71.19   10.00
   2  -2  20   77.69   12.90
  -2  -2 -20   73.99    9.40
  -2  -2 -20   62.89    9.50
   2  -2  20   70.29    9.80
   2  -2  20   50.69   13.90
   2   2  20   60.59    9.00
   2   2  20   66.39   11.40
   2   2  20   61.39   10.70
   3  -2  20    2.90    2.50
  -3  -2 -20   11.70    4.10
  -3  -2 -20    7.60    4.40
   3  -2  20    4.40    3.30
  -3  -2 -20    0.40    6.00
   3   2  20   -0.10    1.90
   3   2  20    1.20    2.70
  -3   2 -20    2.40    3.20
   3   2  20    7.00    7.20
   4  -2  20    5.10    2.70
  -4  -2 -20    2.50    2.50
   4  -2  20   -2.70    3.10
   4   2  20   -1.60    2.70
  -4   2 -20    2.30    2.50
   4   2  20    0.60    2.00
   4  -3 -20    3.60    2.90
   4  -3 -20   -2.30    1.60
   4   3 -20    3.40    2.10
  -4   3  20   -2.20    1.60
   4   3 -20    1.50    2.10
   3  -3 -20    0.20    2.00
  -3  -3  20   -2.60    4.50
   3  -3 -20   -1.00    2.10
   3   3 -20    5.50    3.90
  -3   3  20    1.80    4.60
   3   3 -20    2.60    2.60
  -3   3  20    0.20    1.60
  -2  -3  20    4.30    4.60
  -2  -3  20    7.30    3.50
   2  -3 -20    4.40    3.40
   2  -3 -20    4.50    2.80
  -2   3  20    2.50    2.40
  -2   3  20   -5.70    2.90
   2   3 -20    1.50    2.70
  -2   3  20    0.60    2.90
  -2   3  20   -4.90    4.20
  -1  -3  20   85.09   11.50
  -1  -3  20  102.99    9.90
  -1  -3  20   93.89   12.00
   1  -3 -20   83.29   10.40
   1  -3 -20  105.79    9.60
  -1  -3  20  107.39    9.90
  -1   3  20  102.79   13.70
  -1   3  20  108.89   11.20
  -1   3  20  113.09   11.00
  -1   3  20  115.89   10.40
   0  -3  20  254.97   18.60
   0  -3 -20  253.87   14.40
   0  -3  20  248.48   15.30
   0  -3  20  240.18   16.10
   0  -3  20  226.88   20.50
   0  -3  20  227.58   15.00
   0   3  20  232.68   16.20
   0   3  20  227.08   16.30
   0   3  20  241.98   16.30
   0   3  20  243.08   15.60
   0   3  20  233.18   20.70
   1  -3  20   76.29   12.90
   1  -3  20   60.39    8.40
   1  -3  20   70.09    8.70
  -1  -3 -20   68.59   10.50
  -1  -3 -20   50.59    7.50
   1  -3  20   70.59   10.40
   1   3  20   62.09    8.80
   1   3  20   64.39    7.80
   1   3  20   75.39    9.40
   1   3  20   59.89   10.60
   2  -3  20   31.60    6.50
  -2  -3 -20   18.60    6.30
   2  -3  20   18.60    5.20
  -2  -3 -20   37.00    6.70
   2  -3  20   35.90   12.90
  -2  -3 -20   38.90    8.50
   2   3  20   30.30    8.00
   2   3  20   27.70    8.20
   2   3  20   31.20    7.50
   2   3  20   30.50    6.00
   3  -3  20    7.60    2.90
  -3  -3 -20    7.70    3.70
   3  -3  20   13.30    4.50
  -3  -3 -20   13.60    4.20
  -3  -3 -20    4.00    6.80
   3   3  20    8.90    3.70
   3   3  20    6.50    3.30
  -3   3 -20    4.00    3.30
  -4  -3 -20    2.70    2.30
   4  -3  20    7.20    3.10
  -4   3 -20    5.40    2.50
   4   3  20    8.20    3.20
   4  -4 -20   -4.40    3.20
   4  -4 -20    3.20    2.10
   4   4 -20   -1.60    1.90
  -4   4  20    4.80    2.00
   4   4 -20    1.60    2.50
   3  -4 -20    2.30    3.00
   3  -4 -20    8.70    3.40
  -3   4  20    5.20    2.80
   3   4 -20   18.90    4.90
   3   4 -20   10.80    3.60
  -3   4  20    1.00    3.80
   2  -4 -20    5.30    2.90
   2  -4 -20    3.20    2.40
  -2   4  20    0.50    3.30
  -2   4  20    3.10    2.40
  -2   4  20   11.20    6.60
   2   4 -20   13.30    4.20
   1  -4 -20   41.40    7.70
  -1  -4  20   46.00    8.80
   1  -4 -20   35.20    5.90
  -1  -4  20   29.00    6.00
  -1   4  20   29.60    5.70
  -1   4  20   23.30    5.10
  -1   4  20   22.40    8.50
   0  -4 -20   24.80    5.90
   0  -4  20   13.60    5.00
   0  -4  20    9.80    4.40
   0  -4  20   23.60    7.30
   0  -4  20   11.20    4.00
   0  -4 -20   18.70    4.90
   0   4  20   17.70    6.60
   0   4  20    3.80    3.90
   0   4  20   14.30    6.00
   0   4  20   14.40    4.50
   0   4  20    6.10    3.80
  -1  -4 -20   43.80    8.80
   1  -4  20   43.10    7.60
   1  -4  20   46.00   10.10
   1  -4  20   34.40    8.50
   1  -4  20   32.50    9.60
  -1  -4 -20   45.10    6.90
   1   4  20   41.40    7.70
   1   4  20   37.50    8.40
   1   4  20   40.00    7.40
   1   4  20   42.10    6.80
  -2  -4 -20    0.70    2.50
   2  -4  20    4.90    3.40
  -2  -4 -20    4.20    3.80
   2  -4  20   -1.20    2.00
  -2  -4 -20   -3.60    3.40
   2   4  20    1.90    2.70
   2   4  20   -1.40    3.50
   2   4  20    3.80    3.10
  -3  -4 -20   31.00    5.80
   3  -4  20   28.00    5.70
   3  -4  20   27.10    6.10
  -3  -4 -20   25.70    5.60
  -3   4 -20   22.10    4.70
   3   4  20   29.30    5.50
   3   4  20   25.90    4.90
   3  -5 -20    6.40    2.20
   3  -5 -20   -0.30    2.50
   3   5 -20    9.30    4.10
  -3   5  20    4.70    3.90
  -3   5  20    5.80    2.60
   3   5 -20    1.70    2.40
  -3   5  20    5.60    3.10
   2  -5 -20   24.50    5.30
   2  -5 -20   17.60    4.40
  -2   5  20   21.20    5.40
   2   5 -20   17.80    4.70
  -2   5  20   15.70    6.20
   1  -5 -20  107.09   10.60
  -1  -5  20  128.89   10.90
   1  -5 -20  112.69   11.10
   1   5 -20  100.89    9.90
  -1   5  20  116.19   10.20
  -1   5  20   97.89   11.60
  -1   5  20  105.09   14.80
   0  -5  20   23.40    7.50
   0  -5 -20   15.00    4.30
   0  -5 -20   11.60    4.40
   0  -5  20    9.90    5.20
   0  -5  20    7.50   13.90
   0   5  20    7.80    4.10
   0   5  20    5.80    5.60
   0   5  20   11.40    4.60
   0   5  20   18.60    5.10
   1  -5  20   13.00    4.80
  -1  -5 -20    5.80    3.50
   1  -5  20   10.80    4.60
  -1  -5 -20    2.50    3.60
  -1  -5 -20   15.20    4.10
   1   5  20    2.50    4.80
   1   5  20    8.70    4.00
   1   5  20   12.50    4.30
  -2  -5 -20   31.40    7.00
   2  -5  20   14.40    4.70
  -2  -5 -20   25.50    5.90
   2  -5  20   16.80    5.60
  -2  -5 -20   21.30    7.10
   2   5  20   10.70    6.10
   2   5  20   16.40    4.60
  -2   5 -20   29.80    6.20
   2   5  20   15.90    4.40
   3  -5  20   17.60    4.80
  -3  -5 -20   18.80    4.50
   3  -5  20   22.30    4.80
  -3  -5 -20   18.60    4.60
   3   5  20   20.80    4.30
  -3   5 -20   12.60    4.00
   3   5  20   14.90    4.10
   3  -6 -20    2.00    2.40
   3  -6 -20    3.60    2.20
  -3   6  20    1.40    3.70
   3   6 -20   -2.90    2.00
  -3   6  20   -2.40    2.20
  -3   6  20   -1.40    1.80
   2  -6 -20    4.60    3.00
   2  -6 -20    4.00    2.60
  -2   6  20    4.90    2.80
   2   6 -20    3.30    2.80
  -2   6  20    4.10    3.40
   1  -6 -20   51.99    7.40
   1  -6 -20   53.69    7.50
  -1   6  20   33.70    6.30
   1   6 -20   40.90    7.70
  -1   6  20   38.70    9.50
   0  -6 -20   -1.30    2.30
   0   6  20   -1.40    3.60
   0   6  20   -0.70    2.20
   0   6  20    1.60    4.00
   1  -6  20   35.20    7.70
  -1  -6 -20   49.99    7.00
  -1  -6 -20   35.40    7.00
  -1  -6 -20   34.40    8.30
   1   6  20   44.30    8.40
   1   6  20   40.20    6.80
   1   6  20   32.10    6.80
  -2  -6 -20   -1.60    3.40
  -2  -6 -20    1.50    2.20
   2  -6  20   -3.20    2.70
  -2  -6 -20    2.60    2.20
   2   6  20    0.80    2.20
   2   6  20    0.60    2.60
  -2   6 -20    4.40    4.10
   3  -6  20   11.00    3.70
  -3  -6 -20   20.10    4.30
  -3  -6 -20    8.70    2.90
   3   6  20    8.50    3.00
   3   6  20   13.10    3.80
   3  -7 -20    3.70    2.20
  -3   7  20    1.80    2.70
  -3   7  20    3.20    2.20
  -3   7  20    4.40    2.80
   3   7 -20    7.30    2.60
   2  -7 -20    9.50    3.50
   2  -7 -20    6.60    3.00
   2   7 -20    7.20    3.00
  -2   7  20    2.00    2.50
  -2   7  20   15.40    3.60
   1  -7 -20   -0.10    2.40
   1  -7 -20    4.70    2.40
  -1   7  20   -2.50    2.10
   1   7 -20    2.20    2.90
  -1   7  20   -3.20    3.50
   0  -7 -20    5.20    2.80
   0  -7 -20    2.30    1.60
   0  -7 -20    1.40    4.00
   0   7 -20    1.00    3.50
   0   7  20    3.50    2.90
   0   7  20    2.80    2.40
  -1  -7 -20   20.30    5.00
  -1  -7 -20   17.90    4.40
  -1  -7 -20    9.00    3.20
   1   7  20   11.40    3.50
   1   7  20   -1.80    4.30
  -1   7 -20    6.90    4.40
   1   7  20    5.20    4.20
  -2  -7 -20    5.30    2.80
  -2  -7 -20    6.10    3.00
   2  -7  20    2.80    2.60
   2   7  20    3.10    2.30
   2   7  20    1.40    2.80
  -2   7 -20    0.60    3.00
   2  -8 -20   -1.00    1.80
  -2   8  20    0.70    1.80
   2   8 -20   -2.70    2.00
   1  -8 -20   -0.60    1.80
   1  -8 -20    1.50    2.30
   1   8 -20    2.70    2.80
  -1   8  20    3.70    2.10
  -1   8  20    4.50    2.60
   0  -8 -20    3.50    2.90
   0  -8 -20    5.90    2.10
   0   8  20   -0.80    2.30
   0   8 -20   13.20    3.30
  -1  -8 -20    0.40    2.00
  -1  -8 -20    4.10    2.40
  -1   8 -20   11.80    3.40
   1   8  20   -3.50    3.60
   1   8  20    9.30    2.80
   1  -9 -20    0.90    1.80
  -1   9  20   -0.90    1.70
  -1   9  20   -0.30    1.10
   1   9 -20    0.00    2.30
   0  -9 -20    0.50    2.00
   0   9 -20   -0.40    2.80
   0   9  20   -1.30    2.00
   4   0 -21   -1.50    1.90
   4   0 -21    2.10    2.30
  -4   0  21    2.20    1.70
   3   0 -21   11.40    4.30
   3   0 -21    2.80    3.00
  -3   0  21    8.80    3.00
  -2   0  21    2.90    3.80
  -2   0  21    0.60    4.80
  -2   0  21   -2.20    2.00
   2   0 -21   -1.40    2.50
   1   0 -21  112.49    9.80
  -1   0  21  117.59   14.50
  -1   0  21  130.89   11.10
  -1   0  21   92.49   12.70
  -1   0  21  131.49   11.90
  -1   0  21  118.59   11.70
   0   0  21    1.30    2.60
   0   0  21    2.00    2.30
   0   0  21    4.10    3.40
   0   0  21   -2.70    3.80
   0   0  21    2.10    2.60
  -1   0 -21   17.70    6.90
  -1   0 -21   28.10    6.70
   1   0  21   41.80    6.70
   1   0  21   25.80    6.40
   1   0  21   43.50    7.60
   1   0  21   51.19   10.20
  -2   0 -21    2.70    3.50
  -2   0 -21    1.00    5.60
   2   0  21   -1.40    2.30
   2   0  21    3.40    3.90
   2   0  21   -0.50    2.20
   2   0  21    0.70    6.40
  -3   0 -21   61.09    7.50
   3   0  21   28.80   13.60
   3   0  21   59.29    8.20
   3   0  21   56.69    7.70
  -4   0 -21   -3.70    2.40
   4   0  21   -2.40    2.20
   4  -1 -21    1.80    2.10
   4  -1 -21    1.70    2.60
  -4   1  21   -1.60    1.20
   4   1 -21   -1.40    1.80
   4   1 -21    1.80    2.50
   3  -1 -21    8.00    3.30
   3  -1 -21    3.00    2.70
  -3  -1  21    3.50    2.60
  -3   1  21    3.90    2.20
   3   1 -21   12.40    4.00
   3   1 -21    2.10    2.20
  -2  -1  21    6.00    7.00
   2  -1 -21    5.40    4.80
   2  -1 -21    4.70    3.10
  -2  -1  21    8.00    4.60
  -2  -1  21    1.70    2.10
  -2   1  21    2.30    2.20
  -2   1  21    8.50    5.80
   2   1 -21    7.80    3.20
  -2   1  21    2.90    4.70
  -1  -1  21  177.18   13.40
   1  -1 -21  176.18   11.70
  -1  -1  21  163.28   14.70
  -1  -1  21  168.68   17.00
  -1  -1  21  181.98   13.40
  -1   1  21  169.08   13.20
  -1   1  21  171.58   13.00
  -1   1  21  165.18   17.50
  -1   1  21  156.08   13.10
   0  -1  21    6.10    3.30
   0  -1  21    9.40    3.00
   0  -1  21    5.00    4.50
   0  -1  21    8.10    3.80
   0  -1  21    2.40    3.90
   0   1  21    1.80    2.90
   0   1  21    9.60    3.80
   0   1  21    7.10    4.80
   0   1  21   10.70    4.80
   0   1  21   10.40    4.00
   1  -1  21  129.29   11.60
  -1  -1 -21  117.99   11.00
   1  -1  21  109.79   11.90
   1  -1  21  132.79   12.60
  -1  -1 -21  110.99   12.00
   1  -1  21  131.39   16.30
   1   1  21  125.79   11.30
   1   1  21  111.09   14.80
  -1   1 -21  120.89   10.70
   1   1  21  116.19   11.90
   1   1  21  121.19   12.00
  -2  -1 -21   -0.80    2.90
   2  -1  21   -0.40    2.00
   2  -1  21    4.00    4.30
  -2  -1 -21    7.80    4.70
   2  -1  21   -2.80    2.30
   2  -1  21   -3.10    9.00
   2   1  21    3.10    2.60
   2   1  21   -0.60    5.80
   2   1  21   -1.00    4.30
   2   1  21    3.70    3.50
  -2   1 -21   -3.30    4.30
  -3  -1 -21   35.10    6.00
   3  -1  21   24.90    5.80
   3  -1  21   24.20    5.90
  -3   1 -21   33.10    6.20
   3   1  21   34.50    6.60
   3   1  21   32.40    6.30
   3   1  21   27.90   10.90
  -4  -1 -21    1.40    2.30
   4  -1  21   -2.80    1.90
   4  -1  21   -3.90    2.20
   4   1  21    7.50    2.40
  -4   1 -21    1.70    2.30
   4   1  21    0.60    1.90
   4  -2 -21    4.70    2.70
   4  -2 -21    2.70    2.30
   4   2 -21   -0.60    2.10
   4   2 -21    4.40    2.60
  -4   2  21    0.20    1.30
   3  -2 -21    1.90    2.60
  -3  -2  21    0.10    2.70
   3  -2 -21    1.10    2.40
   3   2 -21    4.70    3.80
  -3   2  21    0.90    1.80
   3   2 -21    1.40    2.20
  -3   2  21    6.90    5.70
   2  -2 -21   -2.20    2.30
  -2  -2  21    2.90    4.30
   2  -2 -21    2.40    4.00
  -2  -2  21   -1.90    1.90
  -2   2  21    7.40    5.10
   2   2 -21   -4.20    2.30
  -2   2  21    1.50    2.20
  -2   2  21    3.90    3.30
  -2   2  21    1.70    3.80
   1  -2 -21  110.39    9.70
  -1  -2  21  114.49   10.40
  -1  -2  21   87.99   13.10
  -1  -2  21  113.69   10.30
  -1  -2  21  111.69   12.20
  -1   2  21  116.19   10.70
  -1   2  21  101.49   11.20
  -1   2  21  123.09   11.30
  -1   2  21  112.89   13.90
   0  -2  21   59.89    9.40
   0  -2  21   67.69   11.20
   0  -2 -21   53.29    7.60
   0  -2  21   50.29    8.60
   0  -2  21   63.89    8.40
   0  -2  21   80.59    8.80
   0   2  21   74.29    8.40
   0   2  21   66.69    8.80
   0   2  21   73.29    9.20
   0   2  21   75.19   12.50
   0   2  21   51.69    8.20
  -1  -2 -21   81.39   10.70
  -1  -2 -21   67.79    8.80
   1  -2  21   73.49    9.20
   1  -2  21   68.59    8.90
   1  -2  21   87.69   10.90
   1  -2  21   75.49   12.60
   1   2  21   80.79    8.50
   1   2  21   77.69   12.40
   1   2  21   70.39    9.40
   1   2  21   72.99    9.50
   2  -2  21   24.20    8.70
   2  -2  21   23.10   13.70
  -2  -2 -21   22.40    6.70
   2  -2  21   29.60    6.30
  -2  -2 -21   27.30    6.00
   2  -2  21   21.10    5.80
   2   2  21   15.50    4.90
   2   2  21   17.70    5.10
   2   2  21   32.90    8.80
   2   2  21   27.00    7.40
   3  -2  21   64.19    8.40
  -3  -2 -21   57.89    7.70
   3  -2  21   64.69    8.00
   3   2  21   44.10   11.30
   3   2  21   68.79    8.40
   3   2  21   65.99    8.20
  -3   2 -21   54.49    7.10
   4  -3 -21    5.20    2.50
   4  -3 -21    1.50    2.50
   4   3 -21    3.80    2.30
   4   3 -21    3.10    2.80
  -4   3  21    2.10    1.60
   3  -3 -21    6.30    3.00
   3  -3 -21    5.70    2.80
   3   3 -21    3.30    2.60
  -3   3  21    2.40    2.40
   3   3 -21    5.50    3.70
  -3   3  21    2.40    4.70
   2  -3 -21   -3.00    2.90
  -2  -3  21   -3.20    5.90
   2  -3 -21    6.40    2.80
  -2  -3  21    9.60    4.10
   2   3 -21    0.60    2.60
  -2   3  21   -2.00    4.30
  -2   3  21    2.30    2.10
  -2   3  21   10.00    4.10
  -2   3  21    5.90    4.50
   1  -3 -21   32.30    6.40
  -1  -3  21   23.70    7.50
   1  -3 -21   29.30    6.00
  -1  -3  21   19.60    5.40
  -1  -3  21   33.30    6.20
  -1   3  21   24.20    7.80
  -1   3  21   25.80    5.50
  -1   3  21   33.10    6.70
  -1   3  21   37.20    7.00
   0  -3  21   -4.30    2.80
   0  -3  21   -6.40    3.70
   0  -3 -21   -4.10    2.00
   0  -3  21    0.20    3.50
   0   3  21    1.40    4.30
   0   3  21    3.50    3.60
   0   3  21   -0.80    1.60
   0   3  21   -3.70    3.40
   1  -3  21   65.79    9.70
  -1  -3 -21   69.69    8.70
   1  -3  21   75.19    9.60
   1  -3  21   86.19   13.50
   1  -3  21   74.99    9.60
  -1  -3 -21   69.59   10.10
   1   3  21   75.99    8.30
   1   3  21   76.49   11.70
   1   3  21   68.59    9.30
   1   3  21   74.59    9.60
  -2  -3 -21   34.30    8.00
   2  -3  21   17.50    5.60
  -2  -3 -21   33.60    6.60
   2  -3  21   13.60   11.70
   2  -3  21   15.00    4.30
   2   3  21   31.70    6.50
   2   3  21   18.80    8.00
   2   3  21   21.70    8.80
   2   3  21   21.00    5.80
   3  -3  21    0.70    3.40
  -3  -3 -21    1.70    3.60
  -3  -3 -21   -1.90    2.50
   3  -3  21    0.70    2.20
  -3   3 -21    3.00    3.30
   3   3  21    2.10    2.50
   4  -4 -21    4.10    2.10
  -4   4  21    5.30    2.00
   4   4 -21    3.60    2.40
   4   4 -21    0.70    3.30
   3  -4 -21    2.80    2.90
   3  -4 -21    5.80    2.40
  -3   4  21    2.10    3.20
   3   4 -21    0.80    2.10
  -3   4  21    0.50    1.70
   2  -4 -21    2.10    2.90
   2  -4 -21    7.10    3.20
  -2  -4  21   -2.10    3.80
   2   4 -21    9.20    3.40
  -2   4  21    1.30    3.40
  -2   4  21   -1.60    2.60
  -2   4  21    6.80    3.00
  -1  -4  21   53.29   10.50
   1  -4 -21   51.49    7.20
  -1  -4  21   60.99    7.70
   1  -4 -21   58.69    8.50
  -1   4  21   55.29    8.80
  -1   4  21   57.69   10.50
  -1   4  21   51.99    7.40
  -1   4  21   65.19    9.10
   0  -4 -21   35.70    6.60
   0  -4  21   36.20   10.10
   0  -4  21   49.30    8.90
   0  -4  21   46.60    7.20
   0  -4 -21   35.60    8.10
   0   4  21   49.50    7.80
   0   4  21   32.30    9.40
   0   4  21   54.99    9.00
   0   4  21   33.80    6.00
   1  -4  21   -1.10    5.30
   1  -4  21    5.60    3.60
  -1  -4 -21    2.30    4.10
   1  -4  21   -4.30    7.90
   1  -4  21   -0.80    3.30
  -1  -4 -21    3.30    3.10
  -1  -4 -21    4.70    2.80
   1   4  21   -0.40    2.60
   1   4  21    2.50    2.50
   1   4  21    0.90    3.50
   1   4  21   -0.60    2.90
   2  -4  21    0.20    2.60
  -2  -4 -21    1.70    2.70
  -2  -4 -21    3.40    4.50
   2  -4  21    5.20    3.90
  -2  -4 -21   -1.10    3.20
   2   4  21    5.30    3.10
   2   4  21    0.90    2.60
   2   4  21   -1.10    4.50
  -3  -4 -21    3.70    3.30
   3  -4  21    2.90    2.60
   3  -4  21   -1.60    2.10
  -3  -4 -21    3.20    3.00
   3   4  21   -1.40    1.70
  -3   4 -21    4.80    3.80
   3   4  21    2.80    2.40
   3  -5 -21   -2.40    1.80
   3  -5 -21    4.50    2.30
  -3   5  21    0.10    2.30
  -3   5  21   -6.90    4.40
   3   5 -21   -3.20    1.90
  -3   5  21    1.80    1.70
   2  -5 -21    4.50    2.70
  -2   5  21    8.60    3.40
  -2   5  21    8.10    3.90
  -2   5  21   10.50    4.80
   2   5 -21   10.30    3.70
  -1  -5  21   30.10    5.60
   1  -5 -21   27.70    6.60
   1  -5 -21   33.20    6.40
  -1   5  21   23.10    5.20
  -1   5  21   23.50    5.50
  -1   5  21   30.30    9.20
   1   5 -21   34.00    6.80
   0  -5 -21   33.70    5.90
   0  -5 -21   29.10    6.40
   0  -5  21   23.40    8.20
   0  -5  21   18.90    7.60
   0   5  21   24.80    5.80
   0   5  21   22.60    6.00
   0   5  21   24.90    7.70
   1  -5  21    7.10    3.60
  -1  -5 -21   -0.50    3.60
  -1  -5 -21    7.70    3.90
  -1  -5 -21    6.10    2.80
   1  -5  21    5.40    3.80
   1   5  21   10.00    5.80
   1   5  21    7.30    3.40
   1   5  21    2.10    3.20
  -2  -5 -21   58.49    7.60
   2  -5  21   53.89    8.60
  -2  -5 -21   53.99    9.30
  -2  -5 -21   64.39    8.30
   2  -5  21   58.59    8.00
   2   5  21   57.59    7.70
   2   5  21   58.29    7.30
   2   5  21   39.50    8.30
   3  -5  21    0.20    2.50
  -3  -5 -21    8.30    2.40
  -3  -5 -21    2.20    2.20
   3   5  21   -3.50    2.20
   3   5  21    3.20    2.10
  -3   5 -21    9.60    3.10
   3  -6 -21    1.50    2.80
   3  -6 -21    3.30    2.10
  -3   6  21    0.00    1.50
  -3   6  21    0.90    2.40
  -3   6  21    2.80    4.00
   3   6 -21   -1.30    1.90
   2  -6 -21    4.30    2.60
   2  -6 -21    3.10    2.20
  -2   6  21   -2.70    2.90
   2   6 -21    0.60    2.50
  -2   6  21   -1.20    2.40
   1  -6 -21   41.10    6.90
   1  -6 -21   55.69    7.30
  -1   6  21   40.30    9.20
  -1   6  21   50.79    6.80
   1   6 -21   49.10    6.50
  -1   6  21   44.50    7.20
   0  -6 -21   70.69   10.20
   0  -6 -21   92.69    9.40
   0  -6 -21   95.79    9.90
   0   6  21   77.69    8.50
   0   6  21   88.89   10.00
   0   6  21   69.89   11.40
  -1  -6 -21   20.10    4.90
   1  -6  21   21.30    4.80
  -1  -6 -21    7.80    4.80
  -1  -6 -21    9.90    4.30
   1   6  21    7.80    4.40
   1   6  21   11.90    4.40
   1   6  21    5.10    3.20
   2  -6  21   17.90    4.50
  -2  -6 -21   11.60    4.20
  -2   6 -21   17.20    4.60
   2   6  21   21.60    4.70
   2   6  21   13.60    4.10
   2  -7 -21    2.40    2.40
   2  -7 -21    1.50    2.10
   2   7 -21    4.50    2.30
  -2   7  21    3.60    2.50
  -2   7  21    2.30    2.50
   1  -7 -21    5.80    2.40
  -1   7  21   -0.30    2.20
  -1   7  21   -2.80    3.80
  -1   7  21    1.10    1.90
   1   7 -21    0.50    2.80
   0  -7 -21    5.10    2.90
   0  -7 -21    7.30    4.70
   0  -7 -21    5.80    2.90
   0   7  21    2.30    2.10
   0   7 -21    4.60    4.20
  -1  -7 -21    2.60    2.40
  -1  -7 -21    3.00    2.50
   1   7  21   -3.90    3.40
  -1   7 -21    8.40    4.20
   2  -7  21   -2.20    2.80
  -2  -7 -21    3.10    2.40
  -2  -7 -21    0.90    2.60
   2   7  21    4.40    3.00
   2   7  21    2.10    2.00
   2   8 -21   -1.20    2.40
  -2   8  21   -0.40    1.40
  -2   8  21    1.00    1.40
   1  -8 -21   -0.10    2.50
   1  -8 -21   -0.20    2.00
  -1   8  21    1.70    2.00
   1   8 -21    2.00    2.40
  -1   8  21   -1.30    1.40
   0  -8 -21    6.50    2.80
   0  -8 -21    9.40    3.40
   0   8  21    5.70    2.30
   0   8 -21    9.40    3.70
   0   8  21    7.30    3.80
  -1  -8 -21    4.40    2.30
   1   8  21    2.10    4.40
   1   8  21    1.00    1.60
   4   0 -22    2.70    2.20
   4   0 -22    4.50    2.20
   3   0 -22   -1.60    2.90
   3   0 -22   -2.20    2.10
  -3   0  22    3.90    2.30
  -2   0  22  138.59   11.60
  -2   0  22  130.79   12.60
   2   0 -22  131.99   10.70
  -2   0  22  116.59   14.20
  -1   0  22    5.00    3.60
   1   0 -22    9.90    3.60
  -1   0  22    8.30    5.10
  -1   0  22    0.50    3.70
  -1   0  22   -6.20    5.80
   0   0  22   12.90    4.70
   0   0  22    4.90    3.80
   0   0  22   13.00    4.70
   0   0  22    9.40    5.60
   0   0  22    1.60    3.20
  -1   0 -22   -2.00    2.80
   1   0  22    0.90    2.30
   1   0  22   -1.60    2.70
   1   0  22    0.10    2.10
   1   0  22   -0.40    3.00
   2   0  22  110.09   11.90
   2   0  22  110.99   17.00
   2   0  22  126.49   12.50
   2   0  22  108.39   13.90
   3   0  22   -1.40    1.90
   3   0  22    2.30    2.20
  -3   0 -22    5.50    3.00
   4  -1 -22    1.90    2.30
   4  -1 -22    2.70    2.40
  -4  -1  22    6.90    4.20
   4   1 -22   11.50    3.40
   4   1 -22    7.30    2.20
  -4   1  22    4.10    1.90
  -3  -1  22   -1.40    1.90
   3  -1 -22    2.50    3.00
   3  -1 -22   -0.80    2.10
   3   1 -22   -3.20    3.60
   3   1 -22    2.10    2.00
  -3   1  22    0.50    2.00
   2  -1 -22   34.00    6.60
  -2  -1  22   44.20    6.00
  -2  -1  22   38.50    8.30
  -2  -1  22   34.60    9.40
  -2   1  22   32.40    7.70
   2   1 -22   38.60    6.40
  -2   1  22   24.10    8.40
  -2   1  22   44.00    6.80
   1  -1 -22   50.19    6.80
  -1  -1  22   55.19    7.60
  -1  -1  22   52.39    7.70
  -1  -1  22   31.70    9.20
  -1  -1  22   52.39    9.50
  -1   1  22   51.29   10.30
  -1   1  22   61.39    8.50
  -1   1  22   42.90    6.90
  -1   1  22   50.69    8.10
   0  -1  22  110.89   15.00
   0  -1 -22  102.39   10.00
   0  -1  22  106.89   10.60
   0  -1  22  101.59   10.80
   0  -1  22  104.69   10.70
   0  -1  22  115.49   12.20
   0   1  22  109.19   11.60
   0   1  22  120.39   10.70
   0   1  22  105.09   10.90
   0   1  22  126.49   16.00
   0   1  22  119.79   11.80
   1  -1  22   12.50    4.20
  -1  -1 -22   14.20    5.70
   1  -1  22   10.30    5.00
   1  -1  22   15.20    4.70
  -1  -1 -22   12.10    5.40
   1  -1  22   17.30    7.10
   1   1  22   13.10    6.60
   1   1  22    7.40    4.00
   1   1  22    7.20    3.20
   2  -1  22   56.39    8.70
   2  -1  22   49.90   12.60
   2  -1  22   59.59    9.00
   2  -1  22   50.09   10.00
   2   1  22   51.59    8.10
   2   1  22   52.59    8.40
   2   1  22   59.99   13.40
   2   1  22   44.00    9.00
   3  -1  22   13.20    4.10
  -3  -1 -22    6.20    3.60
   3  -1  22    3.90    2.30
  -3   1 -22   16.40    3.70
   3   1  22    9.00    3.40
   3   1  22    7.80    3.10
   4  -2 -22    4.40    2.10
   4  -2 -22   -1.60    2.10
   4   2 -22   -3.00    2.40
  -4   2  22   -0.40    1.30
   4   2 -22   -0.80    1.90
   3  -2 -22    5.00    3.20
  -3  -2  22    2.60    2.60
   3  -2 -22    3.30    2.30
   3   2 -22   -5.70    3.70
  -3   2  22    2.60    2.20
   3   2 -22    4.00    2.80
  -3   2  22   -5.70    4.70
  -2  -2  22   52.89   11.10
  -2  -2  22   59.69    7.60
   2  -2 -22   51.79    7.10
   2  -2 -22   40.90    8.10
  -2   2  22   52.49    9.60
  -2   2  22   59.29    9.60
  -2   2  22   40.50    7.10
   2   2 -22   46.90    6.90
  -1  -2  22    5.20    4.00
  -1  -2  22    7.00    4.20
   1  -2 -22   -2.40    2.20
  -1  -2  22    5.80    2.70
  -1  -2  22   -2.70    4.60
  -1   2  22   -6.00    3.10
  -1   2  22    1.20    2.50
  -1   2  22   -1.00    2.30
  -1   2  22    2.00    3.80
   0  -2  22   14.80    7.30
   0  -2  22   26.60    6.70
   0  -2 -22   25.50    5.70
   0  -2  22   21.00    6.40
   0  -2  22   34.30    6.20
   0  -2  22   34.80    6.60
   0   2  22   26.90    9.40
   0   2  22   31.60    7.10
   0   2  22   35.00    6.70
   0   2  22   29.00    6.40
   0   2  22   33.70    6.90
   1  -2  22   64.39    8.60
  -1  -2 -22   46.60    7.30
   1  -2  22   61.29   11.90
   1  -2  22   47.80    8.50
   1  -2  22   41.70    8.10
  -1  -2 -22   38.80    8.50
   1   2  22   44.10   10.00
   1   2  22   53.49    7.30
   1   2  22   48.70    8.20
   1   2  22   58.19    8.30
   2  -2  22   50.19   10.30
  -2  -2 -22   27.60    6.60
   2  -2  22   34.20    7.30
  -2  -2 -22   38.30    7.30
   2  -2  22   42.70    7.50
   2   2  22   48.10   10.90
   2   2  22   45.80    7.70
   2   2  22   33.10    9.10
   2   2  22   36.30    7.00
  -3  -2 -22    9.60    3.70
   3  -2  22    4.00    2.60
   3  -2  22    5.50    2.80
   3   2  22    6.30    3.10
  -3   2 -22    3.50    4.00
   3   2  22    1.80    2.30
   4  -3 -22    3.30    1.90
   4  -3 -22    1.30    2.40
  -4   3  22    0.20    1.40
   4   3 -22   -2.90    1.90
   4   3 -22    4.80    3.50
   3  -3 -22    1.50    2.10
   3  -3 -22   -0.80    2.00
   3   3 -22   -0.40    2.10
  -3   3  22    5.60    3.80
  -3   3  22   -1.30    1.50
   2  -3 -22   18.80    5.00
  -2  -3  22   24.60    5.80
   2  -3 -22   18.50    4.40
   2   3 -22   24.30    5.80
  -2   3  22   15.70    6.60
  -2   3  22   15.40    4.70
  -2   3  22   17.30    4.80
  -1  -3  22   14.40    4.20
   1  -3 -22    9.80    4.30
  -1  -3  22   10.60    6.20
  -1  -3  22    3.30    5.30
  -1   3  22   14.00    5.10
  -1   3  22    9.40    3.90
  -1   3  22   17.50    4.50
  -1   3  22    5.60    5.10
   0  -3  22   21.00    6.00
   0  -3 -22    9.00    4.10
   0  -3  22   17.60    4.90
   0  -3  22   21.40    7.50
   0  -3  22    1.90    5.10
   0  -3  22    7.20    3.90
   0   3  22   16.60    5.80
   0   3  22    8.50    5.00
   0   3  22   15.40    5.50
   0   3  22   14.50    4.60
   0   3  22   12.60    4.00
   1  -3  22  106.89   11.50
   1  -3  22  110.09   12.40
   1  -3  22  102.99   11.00
  -1  -3 -22  118.79   13.30
  -1  -3 -22  116.99   10.70
   1  -3  22  117.19   15.90
   1   3  22  130.79   15.20
   1   3  22  119.19   11.10
   1   3  22  111.19   10.10
   1   3  22  126.29   12.40
   2  -3  22   43.70   16.60
   2  -3  22   53.59    8.20
   2  -3  22   48.20    8.30
  -2  -3 -22   54.19    7.60
  -2  -3 -22   43.30    9.00
   2   3  22   49.90    7.90
   2   3  22   51.29    9.10
   2   3  22   52.89    8.00
  -3  -3 -22   22.90    5.20
   3  -3  22   19.10    4.80
   3  -3  22   16.80    5.00
  -3   3 -22   19.30    5.10
   3   3  22   11.60    4.00
   3   3  22   23.10    5.10
   3  -4 -22    5.50    2.80
   3  -4 -22   19.40    4.50
  -3   4  22    8.40    4.50
   3   4 -22   12.90    3.70
  -3   4  22   19.30    4.00
   2  -4 -22   21.50    5.00
   2  -4 -22   17.60    4.80
  -2   4  22   23.70    5.00
  -2   4  22   19.10    7.20
  -2   4  22   13.10    3.90
   2   4 -22   13.60    3.70
   1  -4 -22   45.70    6.90
  -1  -4  22   27.50    6.30
  -1  -4  22   44.20    9.60
   1  -4 -22   28.10    5.50
  -1   4  22   32.10    6.00
  -1   4  22   36.90    6.50
  -1   4  22   38.20    9.00
   0  -4  22    8.50    3.90
   0  -4  22    4.00    3.50
   0  -4  22    3.00    4.10
   0  -4 -22    7.00    3.00
   0   4  22    5.70    3.10
   0   4  22    3.10    3.90
   0   4  22    7.70    3.10
   1  -4  22  165.98   15.40
   1  -4  22  158.28   20.60
  -1  -4 -22  146.49   15.10
  -1  -4 -22  171.88   14.20
   1  -4  22  193.38   20.70
   1  -4  22  178.58   13.40
  -1  -4 -22  188.58   12.90
   1   4  22  153.58   17.00
   1   4  22  159.18   12.80
   1   4  22  184.88   15.00
   1   4  22  162.78   11.90
  -2  -4 -22   -3.30    1.90
   2  -4  22    5.40    3.50
   2  -4  22    0.90    2.40
  -2  -4 -22   -4.70    3.90
   2   4  22    0.10    2.10
   2   4  22    0.90    3.20
   2   4  22    1.80    1.90
   3  -4  22   -0.40    2.60
   3  -4  22    3.70    2.60
  -3  -4 -22    0.50    2.50
  -3  -4 -22    1.10    3.20
   3   4  22    3.50    2.80
  -3   4 -22    3.40    3.70
   3   4  22    2.80    2.50
   3  -5 -22   -2.00    1.80
  -3   5  22    3.40    3.00
  -3   5  22    1.70    1.90
   3   5 -22    2.50    2.60
   2  -5 -22    2.00    2.90
   2  -5 -22    3.00    2.80
   2   5 -22   -3.20    2.30
  -2   5  22    0.00    2.70
  -2   5  22    3.60    3.40
  -2   5  22   -1.60    1.80
  -1  -5  22   -1.70    4.10
   1  -5 -22    0.90    2.70
   1  -5 -22    1.80    2.90
  -1   5  22    0.40    2.10
  -1   5  22    3.60    2.80
   1   5 -22   -4.30    4.00
   0  -5  22   22.60    9.60
   0  -5 -22   35.20    7.00
   0  -5 -22   30.00    5.90
   0   5  22   22.90    5.10
   0   5  22   16.90    6.60
   0   5  22   29.90    6.30
   1  -5  22    4.60    4.20
  -1  -5 -22    7.90    4.70
  -1  -5 -22    5.50    4.70
   1  -5  22    9.30    4.70
  -1  -5 -22    9.60    3.30
   1   5  22    8.90    5.00
   1   5  22   10.80    4.90
   1   5  22    8.60    3.40
  -2  -5 -22    4.90    3.10
  -2  -5 -22   -2.90    4.70
   2  -5  22   -1.80    2.20
  -2  -5 -22   -4.20    3.40
   2  -5  22    1.50    2.70
   2   5  22   -2.90    1.90
   2   5  22   -0.60    4.20
   2   5  22    1.70    1.80
   3  -5  22   11.70    3.80
  -3  -5 -22   14.80    3.90
  -3  -5 -22   13.60    3.60
   3   5  22   11.30    3.00
   3   5  22   10.10    3.10
   3  -6 -22    2.60    2.30
   3  -6 -22    2.50    2.60
   3   6 -22    1.30    2.00
  -3   6  22   -0.20    2.60
  -3   6  22    5.00    2.10
   2  -6 -22    1.30    2.00
   2  -6 -22   -3.10    1.50
  -2   6  22    5.10    2.60
  -2   6  22   -2.30    2.20
   2   6 -22   -2.50    2.20
  -2   6  22    0.20    2.40
   1  -6 -22   -2.30    2.40
   1  -6 -22   -1.40    2.20
  -1   6  22    5.10    2.70
   1   6 -22    5.00    3.20
  -1   6  22   -0.90    3.40
   0  -6 -22    2.60    3.10
   0  -6 -22   -3.90    3.30
   0  -6 -22    3.00    2.10
   0   6  22   -2.90    2.90
   0   6  22    2.90    2.30
   0   6  22    2.00    4.00
   1  -6  22   35.50    7.60
  -1  -6 -22   65.09    8.00
  -1  -6 -22   35.20    7.90
  -1  -6 -22   60.69    7.30
   1   6  22   42.10    7.80
   1   6  22   51.99    7.20
   1   6  22   45.50    7.50
  -2  -6 -22    2.60    3.00
  -2  -6 -22   -2.40    2.70
   2  -6  22    5.50    2.80
   2   6  22    3.70    2.50
   2   6  22   -0.40    1.90
   2  -7 -22   -3.40    1.90
   2  -7 -22    3.70    2.50
  -2   7  22    3.20    2.60
  -2   7  22    0.50    1.60
   2   7 -22    0.80    2.10
  -2   7  22   -1.60    1.80
   1  -7 -22    4.30    2.50
   1  -7 -22    4.70    2.50
  -1   7  22    2.60    2.90
  -1   7  22    4.10    2.10
   1   7 -22    6.60    3.70
   0  -7 -22    7.00    3.20
   0  -7 -22   12.70    3.30
   0   7 -22    3.50    5.40
   0   7  22    3.00    3.20
   0   7  22    5.00    2.60
  -1  -7 -22    5.60    2.40
  -1  -7 -22   -3.00    1.90
   1   7  22   -0.80    1.40
   1   7  22   -0.60    2.90
   2  -7  22    4.50    3.40
  -2  -7 -22    3.10    2.60
  -2  -7 -22    6.20    2.60
   2   7  22    6.20    2.30
   2   7  22    8.30    3.10
   1  -8 -22    0.10    2.60
   1  -8 -22   -0.10    1.80
   1   8 -22   -0.60    2.80
  -1   8  22    2.00    1.60
  -1   8  22    0.90    1.90
   0  -8 -22    0.30    2.40
   0  -8 -22    0.30    2.20
   0   8  22    2.10    1.80
   0   8  22    3.00    3.20
  -1  -8 -22    2.40    2.70
  -1  -8 -22    3.90    2.70
   1   8  22    4.70    1.90
   4   0 -23    1.10    1.90
   4   0 -23    0.20    2.30
  -4   0  23    1.60    1.90
   3   0 -23    2.50    3.50
  -3   0  23    3.70    2.20
   3   0 -23    4.60    2.60
  -2   0  23    4.20    4.30
   2   0 -23   -0.20    2.50
  -2   0  23   -2.80    2.20
  -1   0  23   64.69    9.20
  -1   0  23   71.79    8.80
  -1   0  23   62.29   10.90
  -1   0  23   65.59   10.00
  -1   0  23   63.89   12.00
   1   0 -23   69.49    8.60
   0   0  23    0.60    3.40
   0   0  23    0.70    3.20
   0   0  23    0.90    3.00
   0   0  23    1.20    2.60
   0   0  23    0.90    2.20
   1   0  23    0.20    3.00
   1   0  23   10.80    5.70
  -1   0 -23   10.70    5.30
   1   0  23    8.10    2.70
  -2   0 -23    2.50    4.70
   2   0  23    8.80   10.60
   2   0  23    3.10    3.60
   2   0  23    3.70    3.10
   2   0  23    1.50    2.40
   3   0  23   53.69    7.70
   3   0  23   74.69    8.40
  -3   0 -23   60.19    7.50
   4  -1 -23    3.10    2.40
   4  -1 -23    1.10    1.90
   4   1 -23   -1.50    2.60
  -4   1  23    0.40    1.50
  -3  -1  23    4.50    2.70
   3  -1 -23   13.30    3.70
   3  -1 -23   10.60    3.20
   3   1 -23   13.30    3.90
  -3   1  23    6.10    2.60
   3   1 -23   11.10    4.20
  -2  -1  23   -1.90    5.50
   2  -1 -23   -2.00    2.40
  -2  -1  23    6.30    3.30
   2   1 -23   13.70    4.00
  -2   1  23   10.40    5.20
  -2   1  23    3.30    2.40
  -1  -1  23    6.90    5.00
   1  -1 -23   10.10    4.00
  -1  -1  23   16.70    6.20
  -1  -1  23   11.70    6.00
  -1  -1  23   19.00    5.10
  -1   1  23   13.10    5.00
  -1   1  23   16.80    4.70
  -1   1  23   15.30    7.10
  -1   1  23   13.80    4.70
   0  -1  23   25.30    5.80
   0  -1  23   12.90    6.40
   0  -1  23   21.20    5.40
   0  -1  23   20.00    5.50
   0  -1  23   21.50    5.70
   0  -1 -23    1.60    4.40
   0   1  23   14.40    5.20
   0   1  23   13.90    5.30
   0   1  23   11.20    4.50
   0   1  23   23.00    8.20
   0   1  23   14.70    4.30
  -1  -1 -23  185.48   16.00
  -1  -1 -23  199.08   13.70
   1  -1  23  222.48   16.70
   1  -1  23  204.98   15.30
   1  -1  23  215.98   16.70
   1  -1  23  227.98   21.60
   1   1  23  219.08   16.30
   1   1  23  221.68   15.20
   1   1  23  199.38   20.70
   1   1  23  201.88   15.90
  -2  -1 -23    4.80    3.50
   2  -1  23    5.70    3.70
  -2  -1 -23   10.50    6.40
   2  -1  23    8.90   12.10
   2  -1  23    3.90    4.20
   2  -1  23    1.50    2.40
   2   1  23    1.50    2.50
   2   1  23    0.40    9.20
   2   1  23    2.60    4.80
   2   1  23    4.60    3.40
   3  -1  23    9.40    3.50
   3  -1  23   15.10    4.10
  -3  -1 -23   11.90    3.60
   3   1  23    8.70    3.30
  -3   1 -23   17.80    4.50
   3   1  23    9.50    3.60
   4  -2 -23   -1.40    2.00
   4  -2 -23    0.60    1.70
   4   2 -23    1.70    2.20
  -4   2  23    2.50    1.50
  -3  -2  23   -1.10    2.00
   3  -2 -23   -3.10    2.30
   3  -2 -23   -1.50    1.90
   3   2 -23    2.10    2.10
  -3   2  23    4.30    2.10
  -2  -2  23    4.00    2.90
   2  -2 -23   10.00    4.00
   2  -2 -23    0.10    2.40
   2   2 -23    2.60    3.00
  -2   2  23    0.40    3.70
  -2   2  23    1.40    2.50
  -1  -2  23  104.49   10.20
   1  -2 -23   97.19    9.30
  -1  -2  23   99.39   11.50
  -1  -2  23   82.89   11.60
  -1  -2  23   87.39   12.10
  -1   2  23   97.99   10.60
  -1   2  23   96.39   14.10
  -1   2  23  100.89   10.10
  -1   2  23   98.49   11.00
   0  -2  23   11.90    6.90
   0  -2  23   16.70    5.70
   0  -2  23   19.10    5.40
   0  -2  23   10.60    5.00
   0  -2  23   13.40    4.80
   0  -2 -23   13.80    4.60
   0   2  23   31.60    9.20
   0   2  23   20.10    5.90
   0   2  23   26.90    6.10
   0   2  23   19.00    5.40
   0   2  23   17.80    4.90
   1  -2  23    3.60    4.00
   1  -2  23    7.70    3.30
  -1  -2 -23    9.60    5.30
  -1  -2 -23   12.60    3.90
   1  -2  23   11.70    5.00
   1  -2  23    5.00    2.90
   1   2  23    1.30    3.90
   1   2  23    8.50    3.80
   1   2  23    5.60    4.00
   1   2  23    8.60    4.10
   2  -2  23   13.40    4.80
  -2  -2 -23   14.90    4.70
  -2  -2 -23   15.50    7.10
   2  -2  23    9.20    4.40
   2  -2  23   10.00    6.30
   2   2  23    7.60    9.50
   2   2  23    4.50    3.20
   2   2  23    7.40    4.90
   2   2  23    5.10    3.20
   3  -2  23   26.60    5.60
   3  -2  23   27.20    5.70
  -3  -2 -23   34.00    6.10
   3   2  23   26.70    5.40
   3   2  23   29.30    5.50
  -3   2 -23   34.00    5.50
   3  -3 -23    0.10    2.20
   3  -3 -23    6.20    2.70
  -3   3  23   -1.30    3.40
   3   3 -23    4.10    2.40
  -3   3  23    0.00    1.00
   2  -3 -23   30.20    6.80
   2  -3 -23   29.50    5.70
  -2  -3  23   21.10    5.40
  -2   3  23   18.50    5.00
   2   3 -23   20.30    4.60
  -2   3  23   30.90    7.20
  -2   3  23   19.00    6.30
  -1  -3  23   -0.60    4.10
   1  -3 -23    8.60    4.90
  -1  -3  23    4.00    3.00
   1  -3 -23    3.50    2.80
  -1   3  23    6.70    3.80
  -1   3  23    1.40    2.00
  -1   3  23   -9.50    4.40
   0  -3  23   60.19   10.90
   0  -3  23   42.50    9.60
   0  -3 -23   74.59    8.50
   0  -3  23   49.80    9.00
   0  -3  23   75.39    8.80
   0   3  23   75.69    9.30
   0   3  23   63.39    8.40
   0   3  23   77.39   12.80
   0   3  23   68.09    9.80
   0   3  23   56.39   10.20
  -1  -3 -23    0.10    3.10
   1  -3  23    0.80    4.00
   1  -3  23    3.20    3.10
   1  -3  23   -3.00    3.30
  -1  -3 -23   -1.90    2.30
   1  -3  23    2.60    3.10
   1   3  23    6.10    4.10
   1   3  23    8.30    3.80
   1   3  23   -1.10    2.10
   1   3  23    3.80    2.80
   2  -3  23   16.00   15.80
   2  -3  23   32.40    6.20
   2  -3  23   34.00    7.30
  -2  -3 -23   37.70    7.00
  -2  -3 -23   42.90    8.50
   2   3  23   20.50    7.00
   2   3  23   29.40    6.00
   2   3  23   29.30    5.80
   3  -3  23    5.50    2.80
   3  -3  23    4.70    2.90
  -3  -3 -23    3.60    2.50
   3   3  23    7.30    2.80
   3   3  23    5.10    2.60
  -3   3 -23    3.10    4.00
   3  -4 -23    8.00    3.00
   3  -4 -23    2.30    2.20
  -3   4  23    0.50    3.10
  -3   4  23    1.60    1.70
   3   4 -23    5.20    2.40
   2  -4 -23    1.30    2.00
   2  -4 -23    0.90    2.80
  -2  -4  23   -3.60    3.90
  -2   4  23    0.10    3.30
  -2   4  23    5.20    3.10
  -2   4  23    2.80    2.30
   2   4 -23    0.50    2.70
  -1  -4  23   54.19    7.50
  -1  -4  23   42.30   11.00
   1  -4 -23   60.19    8.10
   1  -4 -23   52.39    6.90
  -1   4  23   36.90    8.90
  -1   4  23   60.99    7.50
  -1   4  23   54.49    8.00
   0  -4  23   65.59   12.00
   0  -4  23   74.39    8.40
   0  -4 -23   74.49   10.60
   0  -4  23   73.89   10.50
   0  -4 -23   67.19    8.00
   0   4  23   60.89   11.20
   0   4  23   70.89    9.20
   0   4  23   66.29    8.30
  -1  -4 -23   -7.70    4.70
  -1  -4 -23    5.90    4.50
   1  -4  23    4.80    2.90
   1  -4  23    6.40   11.10
   1  -4  23   -5.30    9.00
  -1  -4 -23   -1.60    2.30
   1   4  23    4.60    3.30
   1   4  23    3.40    3.00
   1   4  23   -1.60    3.30
   2  -4  23   26.10    6.00
  -2  -4 -23   32.50    8.20
  -2  -4 -23   42.50    6.40
  -2  -4 -23   32.50    6.00
   2  -4  23   27.70    5.70
   2   4  23   30.60    5.60
   2   4  23   33.80    6.40
   2   4  23   23.10    6.80
  -3  -4 -23   12.50    3.20
   3  -4  23    5.90    3.30
   3  -4  23    6.90    3.20
   3   4  23    6.00    2.40
   3   4  23    4.00    2.50
   3  -5 -23    1.20    2.10
   3  -5 -23    3.90    2.80
   3   5 -23    3.50    2.60
  -3   5  23    1.60    2.70
  -3   5  23   -1.30    1.40
   2  -5 -23    7.50    2.90
   2  -5 -23    3.20    2.20
  -2   5  23    1.70    2.10
  -2   5  23    5.10    3.40
   2   5 -23    4.50    3.30
  -1  -5  23    6.40    5.10
   1  -5 -23   -1.20    2.10
  -1   5  23    2.30    2.30
  -1   5  23    0.10    3.10
  -1   5  23   -0.30    2.90
   0  -5 -23   24.60    5.70
   0  -5  23   35.40   11.60
   0  -5 -23   47.50    7.60
   0   5  23   25.30    7.80
   0   5  23   36.70    6.30
   0   5  23   38.40    7.00
   1  -5  23    0.20    2.70
   1  -5  23   -1.50    2.90
  -1  -5 -23    7.50    4.50
  -1  -5 -23    2.20    3.50
  -1  -5 -23    1.20    2.50
   1   5  23   -1.10    3.40
   1   5  23    1.50    2.00
   1   5  23   -4.60    2.90
   2  -5  23   22.20    5.80
   2  -5  23   25.40    5.90
  -2  -5 -23   15.80    4.50
   2   5  23   23.10    5.00
   2   5  23   18.60    4.50
   2  -6 -23    4.90    2.70
   2  -6 -23    0.80    2.40
   2   6 -23    5.40    3.00
  -2   6  23    5.50    3.00
  -2   6  23    4.40    2.70
  -2   6  23    1.40    2.00
   1  -6 -23    4.40    2.60
   1  -6 -23    7.50    2.70
  -1   6  23    2.90    2.40
  -1   6  23    0.50    2.40
  -1   6  23    5.80    3.90
   1   6 -23   -0.30    4.30
   0  -6 -23    7.00    2.70
   0  -6 -23   12.40    4.10
   0  -6 -23    7.10    3.10
   0   6  23    9.60    4.40
   0   6  23    7.30    2.70
  -1  -6 -23    0.90    2.00
  -1  -6 -23    2.90    2.50
   1   6  23    7.00    4.90
   1   6  23    9.10    3.90
   1   6  23    0.80    1.90
   2  -6  23    8.70    3.30
  -2  -6 -23   14.40    3.70
  -2  -6 -23    4.20    3.00
   2   6  23    1.40    2.80
   2   6  23    4.80    2.30
   2  -7 -23    7.10    2.70
   2  -7 -23    4.60    2.40
  -2   7  23    1.40    2.00
   2   7 -23    1.40    2.50
  -2   7  23    7.70    2.90
  -2   7  23   12.00    3.30
   1  -7 -23    4.00    2.50
   1  -7 -23    1.80    2.20
   1   7 -23   -6.50    3.60
  -1   7  23    1.30    1.60
  -1   7  23    3.10    2.40
   0  -7 -23    2.00    2.50
   0  -7 -23    2.20    2.30
   0   7  23    3.10    1.80
   0   7  23   -3.00    2.20
  -1  -7 -23    0.00    2.10
  -1  -7 -23    1.30    2.20
   1   7  23    4.60    2.60
   1   7  23    0.60    1.90
   0  -8 -23   -0.60    2.50
   0  -8 -23    3.40    2.50
   0   8  23    1.10    1.50
   0   8  23   -3.30    1.70
   3   0 -24    0.80    4.80
  -3   0  24    2.30    1.90
   3   0 -24    5.90    2.40
  -2   0  24   87.69   12.20
   2   0 -24  106.49    9.80
  -2   0  24  114.49   10.30
   1   0 -24   -2.50    3.70
  -1   0  24    6.90    6.40
  -1   0  24    6.20    4.60
  -1   0  24   -1.90    4.60
  -1   0  24    2.00    3.40
  -1   0  24   -0.20    1.80
   0   0  24  169.98   13.60
   0   0  24  155.98   13.80
   0   0  24  160.58   18.10
   0   0  24  151.08   13.00
   0   0  24  153.58   13.80
  -1   0 -24   10.30    5.30
   1   0  24   -1.50    2.00
   1   0  24   -3.20    2.00
   2   0  24    6.30   11.40
   2   0  24    8.50    5.20
  -2   0 -24    8.70    4.60
   2   0  24    8.10    3.70
   2   0  24    5.60    2.80
  -3   0 -24    3.20    3.20
   3   0  24    1.40    1.20
   3   0  24    1.20    1.90
  -3  -1  24    2.00    2.20
   3  -1 -24    3.40    3.30
   3  -1 -24   -2.30    1.80
  -3   1  24    0.20    1.80
   3   1 -24   10.40    3.10
  -2  -1  24   44.20    6.50
   2  -1 -24   44.00    6.50
  -2   1  24   47.80    6.80
  -2   1  24   28.60    8.30
   2   1 -24   43.20    6.40
  -1  -1  24   -2.10    4.50
   1  -1 -24    5.30    3.20
  -1  -1  24    1.20    2.40
  -1  -1  24    0.50    4.90
  -1  -1  24    0.60    3.80
  -1   1  24    5.40    4.70
  -1   1  24    1.30    3.60
  -1   1  24    0.50    3.10
  -1   1  24    4.50    2.90
   0  -1  24  114.69   15.30
   0  -1 -24  106.49    9.50
   0  -1  24  111.99   11.80
   0  -1  24  105.19   10.50
   0  -1  24  116.69   12.30
   0  -1  24  113.79   12.70
   0   1  24  120.09   12.50
   0   1  24  114.79   15.20
   0   1  24  112.09   11.00
   0   1  24  117.39   12.30
   0   1  24  105.49   10.50
   1  -1  24    1.60    2.10
  -1  -1 -24    8.10    4.60
   1  -1  24    0.30    2.70
   1  -1  24   -3.20    2.40
  -1  -1 -24    0.70    3.90
   1  -1  24    6.70    4.00
   1   1  24   -0.20    2.20
   1   1  24   -1.70    3.50
   1   1  24    2.40    2.50
   1   1  24    3.80    2.60
   2  -1  24  102.89   13.90
   2  -1  24  111.99   11.50
   2  -1  24  112.79   11.50
   2   1  24   98.79   10.80
   2   1  24  147.79   19.40
   2   1  24  108.19   11.20
   2   1  24  107.09   13.50
   3  -1  24    2.50    2.50
   3  -1  24    3.40    2.50
  -3  -1 -24    1.60    3.00
  -3   1 -24    4.90    3.60
   3   1  24    1.30    2.20
   3   1  24    5.10    2.40
   3  -2 -24    2.10    2.00
  -3  -2  24   -0.80    3.10
   3  -2 -24   -2.10    2.60
  -3   2  24   -0.10    1.70
   2  -2 -24   38.60    6.70
  -2  -2  24   31.50    5.40
   2  -2 -24   31.80    5.70
  -2   2  24   22.60    6.80
  -2   2  24   31.10    5.80
   2   2 -24   30.00    6.10
  -1  -2  24   -1.60    3.60
  -1  -2  24    1.80    1.90
   1  -2 -24    1.70    2.90
  -1   2  24   -1.50    1.80
  -1   2  24    5.10    3.70
  -1   2  24   -0.70    3.50
   0  -2  24   76.69    8.80
   0  -2  24   81.19   10.20
   0  -2  24   63.19    9.10
   0  -2  24   76.69   12.00
   0  -2 -24   54.19    8.20
   0  -2  24   73.39   12.80
   0   2  24   78.49   13.30
   0   2  24   64.39    9.80
   0   2  24   82.29   11.10
   0   2  24   77.39    9.50
   0   2  24   78.19    9.00
   1  -2  24    1.30    3.20
   1  -2  24    5.10    5.10
  -1  -2 -24   -2.30    3.40
   1  -2  24    1.10    2.20
  -1  -2 -24    4.90    3.80
   1   2  24    6.90    4.30
   1   2  24    3.20    2.50
   1   2  24   -0.50    2.60
   1   2  24    3.20    2.70
   2  -2  24    3.90    3.00
   2  -2  24    1.90    5.90
  -2  -2 -24    6.40    3.20
  -2  -2 -24   -1.80    6.20
   2  -2  24    2.40    2.50
   2   2  24    1.90    2.00
   2   2  24    5.00    4.10
   2   2  24    1.30    2.50
   3  -2  24   -2.30    1.50
   3  -2  24    0.70    2.30
  -3  -2 -24   -0.10    2.70
   3   2  24   -2.00    1.90
  -3   2 -24    3.00    4.10
   3   2  24   -0.10    1.60
   3  -3 -24    5.20    2.40
  -3   3  24   -1.60    4.10
  -3   3  24    3.10    1.90
   3   3 -24    1.60    2.00
   2  -3 -24   12.40    4.60
  -2  -3  24   13.60    4.40
  -2   3  24   11.10    4.10
  -2   3  24    6.10    4.20
  -2   3  24   11.40    5.60
   2   3 -24    9.70    3.70
  -1  -3  24   27.90    7.50
  -1  -3  24   47.20    7.00
   1  -3 -24   40.30    6.20
  -1   3  24   45.20    9.20
  -1   3  24   45.20    7.10
  -1   3  24   48.10    7.50
   0  -3  24   19.10    5.10
   0  -3 -24   21.00    4.70
   0  -3  24   20.50    6.10
   0  -3  24   12.90    6.90
   0   3  24   17.50    4.80
   0   3  24   13.40    6.00
   0   3  24   31.90    6.20
   1  -3  24    5.70    3.60
   1  -3  24    0.50    5.70
   1  -3  24    3.60    4.20
  -1  -3 -24    0.10    4.00
   1  -3  24    0.40    4.50
  -1  -3 -24    1.00    3.30
   1   3  24    3.30    2.70
   1   3  24    3.00    3.30
   1   3  24   -1.00    3.10
   1   3  24    1.90    3.00
  -2  -3 -24   50.69    7.40
   2  -3  24   33.40    5.80
  -2  -3 -24   54.19   14.00
   2  -3  24   34.60    6.90
   2   3  24   37.90    5.90
   2   3  24   30.80    6.90
   2   3  24   35.30    6.30
   3  -3  24    9.00    3.70
  -3  -3 -24   13.70    3.30
   3  -3  24   10.80    3.00
   3   3  24   11.30    3.50
   3   3  24   16.00    3.70
   3  -4 -24    2.10    2.10
   3  -4 -24    0.40    2.10
  -3   4  24    2.10    1.80
   3   4 -24    0.10    2.00
  -3   4  24   -0.50    3.40
   2  -4 -24   -1.30    3.10
   2  -4 -24    0.30    2.10
  -2  -4  24    5.90    4.30
   2   4 -24    9.10    3.30
  -2   4  24    2.50    2.30
  -2   4  24   -0.80    2.20
  -2   4  24    4.50    3.30
  -1  -4  24   -7.00    7.80
   1  -4 -24    2.20    3.90
  -1  -4  24    0.60    2.40
   1  -4 -24    0.80    2.20
  -1   4  24    7.00    3.10
  -1   4  24   -0.20    3.20
  -1   4  24    1.30    2.50
   0  -4 -24   11.10    8.60
   0  -4  24   10.90    7.50
   0  -4  24    8.50    4.50
   0  -4  24   25.40    5.50
   0  -4 -24   13.60    4.30
   0   4  24   16.90    4.80
   0   4  24   16.20    4.70
   1  -4  24   20.90   13.80
   1  -4  24   23.80    5.40
   1  -4  24   13.40   14.10
   1  -4  24   20.00    5.50
  -1  -4 -24   19.00    6.50
   1   4  24   15.40    6.10
   1   4  24   23.50    5.10
   1   4  24   17.30    4.70
   1   4  24   23.60    5.80
   2  -4  24   -0.50    2.00
   2  -4  24    2.30    2.50
  -2  -4 -24   -2.00    2.30
   2   4  24    0.30    1.90
   2   4  24   -3.90    3.40
   3  -5 -24    3.00    2.20
   3  -5 -24    0.40    2.00
  -3   5  24    1.10    1.60
  -3   5  24    1.60    3.00
   3   5 -24    0.80    2.20
   2  -5 -24   10.90    3.20
   2  -5 -24   15.10    3.80
  -2   5  24   14.90    3.70
   2   5 -24   17.40    4.00
  -2   5  24   12.00    3.10
  -1  -5  24   29.20    7.90
   1  -5 -24   20.60    4.70
   1  -5 -24   13.60    3.70
  -1   5  24   16.80    4.30
  -1   5  24   17.50    4.60
   0  -5 -24   -0.70    4.00
   0  -5 -24   -4.30    3.70
   0  -5 -24    1.80    2.70
   0  -5  24    9.00   10.90
   0   5  24    1.00    2.40
   0   5  24    3.20    3.70
   0   5  24   -2.70    2.60
   1  -5  24    1.10    3.30
   1  -5  24    9.80    3.40
  -1  -5 -24    8.70    3.40
  -1  -5 -24    3.90    4.60
  -1  -5 -24    9.00    4.60
   1   5  24    1.40    3.10
   1   5  24    1.40    3.30
   1   5  24   -0.50    1.80
  -2  -5 -24   14.10    4.10
   2  -5  24    7.50    3.90
   2  -5  24   14.30    4.00
  -2  -5 -24   11.00    4.70
   2   5  24    6.50    2.60
   2   5  24    8.70    3.10
   2   5  24    2.50    4.90
   2  -6 -24    4.60    2.40
   2  -6 -24   -1.10    2.30
  -2   6  24   -1.60    2.00
   2   6 -24   -2.90    2.70
  -2   6  24    2.30    2.50
   1  -6 -24    2.40    2.60
  -1   6  24    6.60    2.90
  -1   6  24    4.10    2.60
  -1   6  24    4.70    3.30
   0  -6 -24    3.60    3.10
   0  -6 -24    2.80    2.70
   0   6  24    0.00    2.70
   0   6  24    3.60    2.10
  -1  -6 -24    1.70    2.40
  -1  -6 -24    7.60    3.80
   1   6  24    2.20    2.70
   1   6  24    2.60    2.00
  -2  -6 -24    4.60    2.50
  -2  -6 -24   -4.50    3.40
   2  -6  24    0.30    2.90
   2   6  24    0.00    1.50
   2   6  24    6.20    3.20
   1  -7 -24    3.60    2.70
   1  -7 -24    5.10    2.40
  -1   7  24    5.40    3.20
  -1   7  24    5.20    2.20
   0  -7 -24    0.80    2.10
   0  -7 -24   -0.30    2.20
   0   7  24    0.30    2.60
   0   7  24   -0.20    1.80
  -1  -7 -24    5.10    2.50
  -1  -7 -24    4.50    2.90
   1   7  24    1.20    2.50
   1   7  24    1.40    1.90
   3   0 -25    2.70    2.50
  -3   0  25    3.60    2.30
  -2   0  25    2.40    3.80
  -2   0  25    2.50    2.70
   2   0 -25   -0.70    2.30
  -1   0  25   56.19   10.10
  -1   0  25   51.39    7.30
   1   0 -25   57.09    8.40
   0   0  25    0.70    2.80
   0   0  25    7.10    4.90
   0   0  25    0.40    2.40
   0   0  25   -4.50    3.00
   1   0  25   94.09    9.60
   1   0  25   71.19    9.40
   1   0  25   85.19   10.00
   1   0  25   91.89   12.60
  -2   0 -25    5.00    4.60
   2   0  25    3.50    2.70
   2   0  25   -1.00    3.20
   2   0  25    1.90    2.40
  -3   0 -25   18.20    4.20
   3   0  25   22.30    4.60
   3   0  25   25.70    4.60
   3  -1 -25    3.10    2.80
   3  -1 -25    4.60    3.90
   3   1 -25    6.10    3.00
  -3   1  25   11.00    3.00
  -2  -1  25    0.10    4.30
   2  -1 -25    1.10    2.20
  -2  -1  25    6.00    2.80
  -2   1  25    4.80    3.50
  -2   1  25    1.20    2.00
   2   1 -25    5.30    3.10
  -1  -1  25    2.80    2.60
   1  -1 -25   -3.20    3.10
  -1  -1  25   -1.70    3.30
  -1   1  25   -4.90    3.20
  -1   1  25    0.20    3.50
  -1   1  25    2.50    2.70
   0  -1 -25   13.20    4.70
   0  -1  25    3.40    4.10
   0  -1  25    5.10    2.50
   0  -1  25    4.80    3.80
   0  -1  25    1.00    3.50
   0   1  25    3.30    4.70
   0   1  25   10.20    5.20
   0   1  25    3.80    2.80
   0   1  25    0.30    2.40
  -1  -1 -25   51.19    9.60
   1  -1  25   63.39   11.70
   1  -1  25   55.19    8.10
   1  -1  25   60.09    9.10
  -1  -1 -25   60.69   10.20
   1  -1  25   60.29    7.90
   1   1  25   64.39    8.60
   1   1  25   58.09   10.60
   1   1  25   58.49    7.90
   1   1  25   43.20    7.70
   2  -1  25    1.30    1.90
  -2  -1 -25    0.30    3.40
   2  -1  25    6.00    2.30
   2  -1  25    2.70    3.30
   2   1  25    5.20    3.50
   2   1  25    2.40    2.80
   2   1  25    5.10    2.90
   3  -1  25    4.10    2.30
   3  -1  25    3.70    2.50
  -3  -1 -25    9.60    3.40
   3   1  25    7.30    2.50
   3   1  25    3.10    2.40
   3  -2 -25    1.90    2.40
   3  -2 -25    3.80    3.40
  -3  -2  25    1.30    2.40
  -3   2  25    1.10    1.70
   3   2 -25   -0.60    2.50
  -2  -2  25   16.30    4.00
   2  -2 -25   14.10    3.80
  -2   2  25    7.40    5.40
  -2   2  25   16.60    4.60
   2   2 -25   12.70    4.20
   1  -2 -25   37.10    6.30
  -1  -2  25   24.10    5.60
  -1  -2  25   30.80    7.30
  -1   2  25   23.40    5.30
  -1   2  25   25.80    5.70
   0  -2  25   26.70    6.40
   0  -2 -25   32.10    5.90
   0  -2  25   34.80    9.00
   0  -2  25   34.70    8.40
   0  -2  25   39.00    6.30
   0   2  25   41.40    6.80
   0   2  25   38.80    6.20
   0   2  25   22.00    8.00
   0   2  25   44.00    9.00
  -1  -2 -25   40.10    8.20
   1  -2  25   52.19    7.40
   1  -2  25   48.10    8.40
   1  -2  25   65.29    8.70
   1  -2  25   54.19   10.90
   1   2  25   51.09    7.50
   1   2  25   45.30    9.50
   1   2  25   53.39    7.90
   1   2  25   74.19    8.10
   2  -2  25   12.70    3.60
   2  -2  25   10.80    9.50
   2  -2  25   16.00    4.60
   2   2  25   13.40    5.30
   2   2  25    8.80    3.70
   2   2  25   13.90    4.20
  -3  -2 -25    4.50    2.80
   3  -2  25    3.40    2.10
   3  -2  25    0.80    2.10
   3   2  25   10.20    2.80
   3   2  25    7.30    2.30
   3  -3 -25    0.00    2.90
   3  -3 -25    3.50    2.40
  -3   3  25    1.50    1.50
   3   3 -25    0.10    2.50
  -2  -3  25    5.40    3.20
   2  -3 -25    5.00    2.70
   2  -3 -25   13.50    4.70
   2   3 -25    5.70    3.90
  -2   3  25    8.90    4.80
  -2   3  25    2.50    2.70
  -2   3  25    4.50    2.40
  -1  -3  25   14.10    4.60
   1  -3 -25   13.70    4.10
  -1  -3  25    9.60    5.60
  -1   3  25   13.10    4.00
  -1   3  25   11.60    5.10
  -1   3  25   12.50    4.20
   0  -3 -25  116.39   10.10
   0  -3  25  114.99   10.40
   0  -3  25   98.19   11.80
   0  -3  25   76.39   11.80
   0   3  25  120.59   11.40
   0   3  25  111.39   14.50
   0   3  25  117.39   10.70
   1  -3  25   14.90    5.50
   1  -3  25   16.70    9.90
  -1  -3 -25    8.40    5.90
  -1  -3 -25   12.00    4.00
   1  -3  25   21.10    5.00
   1  -3  25   12.50    7.00
   1   3  25    9.10    3.10
   1   3  25   15.90    4.40
   1   3  25   10.20    5.90
   1   3  25   12.00    4.50
   2  -3  25    4.40    3.40
   2  -3  25    2.30    2.50
   2   3  25    6.30    2.20
   2   3  25    4.90    3.00
   2   3  25    0.00    3.30
   3  -4 -25   -0.60    1.90
   3  -4 -25    1.30    2.10
   3   4 -25    0.90    2.70
  -3   4  25   -0.10    1.30
   2  -4 -25   16.80    4.20
   2  -4 -25   15.10    4.00
  -2   4  25   10.90    3.20
  -2   4  25   22.20    4.80
   2   4 -25   11.90    3.80
  -2   4  25    9.20    4.30
   1  -4 -25   -3.00    3.80
   1  -4 -25   -1.30    2.40
  -1   4  25    0.60    2.10
  -1   4  25    2.20    3.30
  -1   4  25   -3.30    1.90
   0  -4  25   -3.00    3.70
   0  -4  25   -0.70    4.00
   0  -4  25    4.00    8.80
   0  -4 -25    4.80    2.70
   0   4  25   -1.90    1.70
   0   4  25    2.40    3.60
   0   4  25    6.30    2.60
  -1  -4 -25   28.30    5.90
   1  -4  25   37.00    7.00
  -1  -4 -25   27.00    6.70
   1  -4  25   21.20    4.30
   1   4  25   22.60    6.40
   1   4  25   31.50    5.50
   1   4  25   36.30    5.80
   1   4  25   25.10    5.00
   2  -4  25   10.60    3.20
  -2  -4 -25    7.90    3.40
   2  -4  25    8.40    3.90
   2   4  25    3.60    4.10
   2   4  25   13.70    3.90
   2   4  25    8.80    3.10
   2  -5 -25    4.20    2.80
   2  -5 -25    5.60    2.70
  -2   5  25    7.00    2.60
   2   5 -25   10.40    3.60
  -2   5  25    5.80    3.40
  -2   5  25    6.10    3.50
   1  -5 -25   13.80    3.80
   1  -5 -25   17.80    4.20
  -1   5  25   15.10    4.90
  -1   5  25    9.40    3.30
  -1   5  25   15.80    4.00
   0  -5 -25   25.50    7.30
   0  -5 -25   35.20    7.90
   0  -5 -25   39.90    6.30
   0   5  25   34.80    6.40
   0   5  25   39.40    8.30
   0   5  25   36.00    5.30
  -1  -5 -25    0.20    2.30
  -1  -5 -25   -6.00    5.00
   1  -5  25    4.90    4.50
   1   5  25    1.80    1.70
   1   5  25   -0.30    2.50
   2  -5  25   -1.30    2.80
  -2  -5 -25    6.20    2.90
   2   5  25    1.80    1.70
   2   5  25    3.80    2.70
   2  -6 -25    1.90    2.30
   2  -6 -25    0.60    2.60
  -2   6  25    2.40    2.00
  -2   6  25    4.60    2.80
  -2   6  25    2.70    2.50
   1  -6 -25    1.10    2.30
   1  -6 -25    3.30    2.90
  -1   6  25    0.40    2.50
  -1   6  25   -0.70    1.40
  -1   6  25   -2.20    2.40
   0  -6 -25   -0.10    2.40
   0   6  25    0.90    1.90
   0   6  25   -1.60    1.70
  -1  -6 -25    6.50    2.40
  -1  -6 -25    5.00    3.70
   1   6  25    3.00    2.90
   1   6  25    1.90    2.20
   1  -7 -25    1.50    2.40
   1  -7 -25   -0.80    2.20
  -1   7  25    0.30    1.40
  -1   7  25    3.30    1.80
   0  -7 -25    4.10    2.60
   0  -7 -25    2.00    2.40
   0   7  25    4.30    2.20
   0   7  25    2.00    2.40
   3   0 -26   -1.80    1.90
  -3   0  26    0.90    1.40
   2   0 -26   -0.10    3.20
  -2   0  26    0.40    3.10
  -2   0  26    1.00    1.80
   1   0 -26   -1.70    4.20
  -1   0  26    2.00    2.50
  -1   0  26    2.60    3.80
   0   0  26  125.79   11.00
   0   0  26  132.99   11.80
   0   0  26  117.49   12.50
   0   0  26   92.19   13.50
   1   0  26   -0.10    2.40
   1   0  26   -3.40    3.50
   1   0  26    6.20    2.80
   1   0  26    0.70    3.40
   2   0  26    1.40    1.50
   2   0  26    2.40    2.70
   3   0  26    0.00    1.70
   3   0  26    0.50    2.20
  -3  -1  26    0.70    2.80
   3  -1 -26    3.40    2.40
   3   1 -26   -0.50    2.50
  -3   1  26    0.90    1.20
  -2  -1  26   -7.80    4.30
  -2  -1  26   11.30    3.30
   2  -1 -26    9.20    3.30
  -2   1  26    0.10    3.30
   2   1 -26    2.30    2.90
  -2   1  26    4.10    2.20
  -1  -1  26    0.10    3.40
   1  -1 -26   -4.70    3.60
  -1  -1  26   -2.20    2.00
  -1   1  26    2.80    3.00
  -1   1  26    3.70    2.60
  -1   1  26    7.30    4.00
   0  -1  26    6.10    4.20
   0  -1  26    1.20    3.90
   0  -1  26    1.50    2.00
   0  -1  26   -2.90    3.30
   0   1  26    4.80    4.20
   0   1  26   -2.30    2.00
   0   1  26   -0.30    4.50
   0   1  26   -3.00    2.00
  -1  -1 -26   15.40    5.50
   1  -1  26    3.70    3.60
  -1  -1 -26   -5.10    5.50
   1  -1  26    7.30    3.80
   1  -1  26    5.30    3.10
   1  -1  26    8.70    3.20
   1   1  26    9.80    4.00
   1   1  26    6.50    3.90
   1   1  26    9.10    3.70
   1   1  26    7.00    3.30
   2  -1  26   45.40    6.80
   2  -1  26   35.60    7.90
   2  -1  26   35.20    6.30
  -2  -1 -26   58.29    8.40
   2   1  26   32.70    6.20
   2   1  26   29.20    7.00
   2   1  26   46.80    6.70
   3  -2 -26    2.60    2.40
  -3  -2  26    0.20    2.70
   3  -2 -26    1.30    6.10
  -3   2  26    0.90    1.40
   3   2 -26   -0.80    2.40
   2  -2 -26    3.70    2.60
  -2  -2  26    2.80    2.10
  -2   2  26   -3.80    2.70
  -2   2  26    2.80    2.10
   1  -2 -26    4.90    3.30
  -1  -2  26    4.40    2.50
  -1  -2  26    3.10    3.70
  -1   2  26   -2.60    3.70
  -1   2  26    3.00    3.20
  -1   2  26    0.10    1.70
   0  -2  26   21.40    5.80
   0  -2  26   28.30    6.00
   0  -2  26   18.50    6.40
   0  -2 -26   19.60    4.80
   0  -2  26   34.70    7.50
   0   2  26   30.00    5.60
   0   2  26   14.30    7.40
   0   2  26   38.40    8.50
   0   2  26   20.90    5.40
   1  -2  26   18.40    7.40
   1  -2  26   11.90    5.80
  -1  -2 -26   15.10    5.60
  -1  -2 -26   16.70    6.60
   1  -2  26    6.40    3.80
   1  -2  26   12.90    4.00
   1   2  26    8.60    4.60
   1   2  26    6.70    3.20
   1   2  26   11.20    3.40
   1   2  26    5.70    2.90
   2  -2  26   -2.60   10.80
   2  -2  26    0.00    2.10
  -2  -2 -26    0.90    3.00
   2  -2  26   -0.70    1.20
   2   2  26   -2.00    1.80
   2   2  26    0.30    1.60
   2   2  26    2.40    3.40
   3  -3 -26   -4.70    3.10
   3  -3 -26    3.20    2.60
  -3   3  26    4.60    1.60
   3   3 -26   -3.10    2.10
  -2  -3  26   10.80    3.90
   2  -3 -26   13.80    3.70
  -2   3  26   12.30    4.40
   2   3 -26   12.70    4.40
  -2   3  26   19.90    4.50
  -1  -3  26    0.70    2.20
  -1  -3  26   -4.60    3.50
   1  -3 -26    1.10    2.70
  -1   3  26   -1.20    2.40
  -1   3  26    1.70    2.30
  -1   3  26   -4.00    2.50
   0  -3  26    3.40    4.20
   0  -3 -26    8.10    3.00
   0  -3  26    4.10    2.80
   0  -3  26    3.90    3.80
   0   3  26    4.40    5.30
   0   3  26    6.00    3.00
   0   3  26    9.00    3.20
   1  -3  26   10.30    3.70
   1  -3  26   17.20    5.30
  -1  -3 -26   10.90    5.70
   1  -3  26   14.80   10.50
   1  -3  26    1.90    5.90
  -1  -3 -26   19.40    4.60
   1   3  26    4.10    3.30
   1   3  26   11.80    3.60
   1   3  26   18.00    4.10
   1   3  26   11.10    4.30
   2  -3  26   13.00    3.60
  -2  -3 -26    7.80    3.70
   2  -3  26   22.60    4.90
   2   3  26   22.80    4.40
   2   3  26   19.10    4.40
   2   3  26    5.90    4.00
   2  -4 -26    3.70    3.10
  -2   4  26    3.40    2.10
  -2   4  26   -8.30    4.30
  -2   4  26    0.50    1.60
   2   4 -26    9.80    3.90
   1  -4 -26   50.39    6.30
  -1  -4  26   54.69    6.80
  -1   4  26   47.60    8.20
  -1   4  26   47.20    6.40
  -1   4  26   60.09    6.60
   0  -4  26    3.10   11.20
   0  -4 -26   -0.20    3.50
   0  -4 -26    8.60    3.50
   0  -4  26    5.70    6.70
   0   4  26    7.10    3.00
   0   4  26    9.10    3.20
   0   4  26    5.50    4.70
   1  -4  26    7.30    4.30
   1  -4  26    2.90    3.20
  -1  -4 -26    4.10    3.20
   1   4  26    2.30    3.40
   1   4  26    5.30    4.20
   1   4  26    7.00    2.50
   1   4  26    6.10    4.70
   2  -4  26   10.40    3.40
  -2  -4 -26   12.50    3.80
   2  -4  26    7.60    3.30
   2   4  26    9.60    2.90
   2   4  26   12.10    3.70
   2   4  26    7.30    4.20
   2  -5 -26    1.60    2.70
   2  -5 -26   -0.80    1.90
  -2   5  26    0.50    2.20
  -2   5  26    2.00    1.80
  -2   5  26   -2.70    3.30
   1  -5 -26    8.90    4.20
   1  -5 -26    8.40    3.00
  -1   5  26    7.20    2.80
  -1   5  26    7.60    2.80
  -1   5  26    4.60    3.30
   0  -5 -26    0.60    2.60
   0   5  26   -3.30    2.30
   0   5  26   -1.80    2.80
   0   5  26    3.90    2.30
  -1  -5 -26    0.80    2.10
   1   5  26    6.90    2.40
   1   5  26   -1.90    2.70
   1  -6 -26    5.10    2.30
   1  -6 -26    1.30    3.20
  -1   6  26    2.10    2.20
  -1   6  26    9.00    3.10
   0  -6 -26   -0.80    3.60
   0  -6 -26   10.40    3.30
   0   6  26   -1.80    2.70
   0   6  26    2.60    2.00
  -1  -6 -26   15.30    3.60
   1   6  26   15.70    3.70
   1   6  26    8.20    3.70
   3   0 -27    5.10    2.70
  -3   0  27    6.10    2.20
  -2   0  27   -1.40    3.50
   2   0 -27   -2.00    2.60
  -2   0  27    1.50    1.60
  -1   0  27   24.90    5.00
   1   0 -27   27.10    6.40
  -1   0  27   20.60    5.90
   0   0  27   -1.30    1.70
   0   0  27    2.00    1.90
   0   0  27   -2.10    4.20
   1   0  27   21.70    5.00
   1   0  27   15.30    5.70
   1   0  27   23.20    5.30
   1   0  27   23.10    5.10
   2   0  27    1.70    2.60
   2   0  27    0.20    1.80
   2   0  27    0.00    3.10
   3  -1 -27    8.90    3.00
  -3  -1  27    4.80    1.90
   3   1 -27    5.60    2.70
  -3   1  27    3.00    1.60
   2  -1 -27    1.30    2.80
  -2  -1  27   -1.90    1.90
  -2   1  27    2.20    3.40
  -2   1  27   -1.10    1.10
   2   1 -27    9.10    3.70
  -1  -1  27   29.30    5.40
  -1  -1  27   16.20    5.50
   1  -1 -27   29.10    5.60
  -1   1  27   28.20    6.80
  -1   1  27   35.30    5.70
   0  -1  27    3.10    2.10
   0  -1  27   -2.20    3.40
   0  -1  27    4.90    3.50
   0  -1 -27   -0.90    4.90
   0  -1  27    3.50    3.60
   0   1  27    8.80    4.60
   0   1  27    2.70    2.70
   0   1  27    6.10    3.90
   0   1  27    7.40    2.70
   1  -1  27    2.50    2.80
   1  -1  27   -0.50    2.30
   1  -1  27    2.90    2.80
   1  -1  27    6.00    3.40
  -1  -1 -27   -7.10    4.80
   1   1  27   -0.80    1.90
   1   1  27    0.00    2.70
   1   1  27    5.20    2.30
   1   1  27    0.90    3.10
   2  -1  27   -2.70    2.00
   2  -1  27    5.10    2.30
   2  -1  27    2.20    6.40
  -2  -1 -27    4.20    4.50
   2   1  27    0.70    2.30
   2   1  27    0.00    1.40
   3  -2 -27   -2.60    2.00
  -3   2  27    1.80    1.30
   3   2 -27    3.50    2.60
   2  -2 -27    6.30    2.70
  -2  -2  27    4.60    2.80
  -2   2  27    2.60    1.60
   2   2 -27   11.90    3.90
  -2   2  27    1.20    2.50
  -1  -2  27   10.60    3.20
   1  -2 -27   26.60    5.70
  -1  -2  27    5.40    4.70
  -1   2  27   17.90    4.10
  -1   2  27   12.70    5.10
  -1   2  27   11.60    4.20
   0  -2  27    3.80    4.40
   0  -2  27    1.80    3.20
   0  -2  27    8.90    4.60
   0  -2  27    0.60    1.80
   0   2  27    3.00    2.40
   0   2  27    0.60    3.10
   0   2  27    0.40    1.70
   0   2  27   14.30    5.50
   1  -2  27   26.50    8.90
   1  -2  27   38.40    6.00
   1  -2  27   13.80    6.00
   1  -2  27   33.90    6.60
  -1  -2 -27   36.20    8.20
   1   2  27   27.60    4.80
   1   2  27   18.00    5.80
   1   2  27   24.00    5.50
   1   2  27   26.50    5.50
  -2  -2 -27   19.60    4.30
   2  -2  27   12.70    4.10
   2  -2  27   19.40    4.10
   2   2  27   14.70    4.00
   2   2  27   10.20    4.70
   2   2  27   12.60    3.90
   2  -3 -27    1.10    2.30
  -2  -3  27   -0.20    3.00
  -2   3  27   -0.80    1.40
  -2   3  27   -1.00    2.60
   1  -3 -27   18.40    4.20
  -1  -3  27   17.90    4.30
  -1  -3  27    2.80    5.90
  -1   3  27   13.80    3.80
  -1   3  27   11.40    4.90
  -1   3  27   15.30    4.10
   0  -3  27    1.10    2.10
   0  -3 -27    1.50    3.50
   0  -3  27    3.50    3.20
   0  -3  27    7.10    3.70
   0   3  27    1.90    3.10
   0   3  27   -1.40    1.70
   1  -3  27    5.70   11.70
  -1  -3 -27    0.50    3.00
   1  -3  27   -0.20    2.70
   1  -3  27    2.10    2.60
   1  -3  27    4.50    8.70
   1   3  27    0.10    1.80
   1   3  27    0.80    2.30
   1   3  27    3.90    2.80
   1   3  27   -1.40    3.40
  -2  -3 -27    4.30    3.30
   2  -3  27    2.80    2.20
   2  -3  27   -3.10    2.10
   2   3  27   -0.10    2.40
   2   3  27    0.60    1.50
   2   3  27    2.20    2.10
   2  -4 -27    3.00    2.10
  -2   4  27    2.10    2.30
  -2   4  27    3.30    1.90
  -1  -4  27   -3.30    3.90
   1  -4 -27   -1.30    2.00
  -1   4  27    0.30    2.30
  -1   4  27    0.10    2.10
   0  -4  27    7.40    9.00
   0  -4 -27    7.60    3.00
   0   4  27    4.60    2.40
   0   4  27    0.60    3.00
   0   4  27    4.30    2.70
  -1  -4 -27   18.40    4.10
   1  -4  27    9.40    4.00
   1  -4  27   13.40    4.40
   1   4  27   23.70    6.20
   1   4  27   20.70    4.80
   1   4  27   26.30    4.70
   1   4  27   10.30    3.90
   1  -5 -27    2.90    2.70
  -1   5  27   -0.80    2.30
  -1   5  27   -1.10    2.00
  -1   5  27    3.00    2.40
   0  -5 -27    7.20    3.50
   0   5  27   10.90    3.30
   0   5  27    6.30    3.30
   0   5  27    7.40    3.00
  -1  -5 -27    0.90    2.20
   1   5  27    4.00    2.70
   1   5  27    7.80    2.60
   0  -6 -27    2.40    2.50
   0   6  27    2.10    1.70
   0   6  27   -0.40    1.80
   2   0 -28   -3.40    2.40
  -2   0  28   -0.10    2.00
  -2   0  28    8.20    4.10
   1   0 -28   -8.10    4.80
  -1   0  28   -1.60    1.40
  -1   0  28   -1.10    3.10
   0   0  28   15.80    5.70
   0   0  28   19.20    4.90
   0   0  28   31.00    5.00
   0   0  28   18.00    5.20
   1   0  28    5.20    3.90
   1   0  28    1.30    2.00
   1   0  28   -3.30    1.80
   1   0  28    2.90    2.90
   2   0  28   -1.00    4.20
   2   0  28    8.10    3.20
   2   0  28    5.50    2.60
   2  -1 -28    8.10    2.90
  -2  -1  28   13.30    3.40
  -2   1  28    7.10    2.50
   2   1 -28    4.40    3.60
  -2   1  28    4.90    3.30
   1  -1 -28    9.50    3.70
  -1  -1  28    5.60    2.60
  -1  -1  28   11.20    4.80
  -1   1  28   11.00    3.40
   0  -1  28   19.30    4.80
   0  -1 -28   20.50    6.40
   0  -1  28   19.30    4.40
   0  -1  28   15.90    4.90
   0  -1  28   13.00    4.90
   0   1  28   15.10    5.50
   0   1  28   19.30    6.40
   0   1  28   19.10    4.20
   0   1  28   24.90    5.10
   1  -1  28    5.50    2.60
   1  -1  28    0.70    5.10
   1  -1  28    6.10    3.80
   1  -1  28    2.80    2.90
   1   1  28    1.60    2.00
   1   1  28   -0.40    2.90
   1   1  28   -0.60    2.00
   1   1  28    6.40    3.10
   2  -1  28   38.20    5.70
   2  -1  28   30.00    4.70
   2  -1  28   25.70   11.50
   2   1  28   25.30    5.10
   2   1  28   36.20    5.20
   2   1  28   41.20    5.50
  -2  -2  28    4.80    2.80
   2  -2 -28    0.10    2.00
   2   2 -28   -2.80    3.60
  -2   2  28   -0.80    2.70
  -2   2  28    0.20    1.70
   1  -2 -28   22.80    4.50
  -1  -2  28   18.30    5.70
  -1  -2  28   24.00    5.30
  -1   2  28   28.60    4.80
  -1   2  28   26.40    5.10
   0  -2  28   22.00    4.50
   0  -2  28    7.30    4.60
   0  -2  28   18.10    4.80
   0   2  28   15.30    3.60
   0   2  28   16.90    4.20
   0   2  28   13.70    4.70
   1  -2  28    2.60    2.70
   1  -2  28    6.00    3.20
   1  -2  28    6.70    9.30
   1  -2  28    4.20    3.60
   1   2  28    4.20    3.00
   1   2  28    9.50    3.70
   1   2  28    5.70    2.90
   1   2  28   -0.70    3.10
   2  -2  28    5.10    2.20
   2  -2  28    5.90    2.70
   2   2  28    4.50    2.30
   2   2  28    2.30    2.60
   2   2  28    5.00    2.20
  -2  -3  28   11.00    2.90
   2  -3 -28    6.60    2.70
  -2   3  28    9.70    3.60
  -2   3  28   10.40    3.00
  -1  -3  28    2.20    2.60
  -1  -3  28    0.10    7.60
   1  -3 -28    7.00    3.00
  -1   3  28   10.60    3.80
  -1   3  28    5.50    2.60
   0  -3  28   20.80    8.20
   0  -3 -28   29.20    5.60
   0  -3  28   27.00    6.30
   0   3  28   26.20    4.60
   0   3  28   18.80    6.10
   0   3  28   31.50    5.40
   1  -3  28    3.60   10.90
   1  -3  28    9.90    4.00
  -1  -3 -28   14.00    4.00
   1  -3  28   13.10    3.70
   1   3  28   15.00    5.00
   1   3  28    9.50    3.30
   1   3  28   18.70    5.70
   1   3  28    9.10    3.90
   2  -4 -28    5.30    2.50
  -2   4  28    8.40    2.50
  -2   4  28    4.80    2.40
   1  -4 -28    8.00    3.20
  -1  -4  28    6.20    6.70
  -1   4  28    8.00    2.70
  -1   4  28    6.70    3.30
  -1   4  28    3.90    3.10
   0  -4 -28    3.10    2.50
   0   4  28    2.40    1.90
   0   4  28   -0.90    1.90
   0   4  28   -1.90    1.90
  -1  -4 -28    9.10    3.10
   1   4  28    5.20    2.90
   1   4  28    5.80    2.40
   1  -5 -28    6.00    2.60
  -1   5  28    1.00    2.30
  -1   5  28    1.10    1.90
  -1   5  28    1.70    2.50
   0  -5 -28    7.60    3.00
   0   5  28    2.90    2.60
   0   5  28    5.70    2.30
  -2   0  29    2.60    2.10
  -1   0  29    5.30    2.40
  -1   0  29    5.70    3.20
   0   0  29    3.70    2.50
   0   0  29   -3.30    3.60
   0   0  29   -2.20    1.30
   0   0  29   -3.50    3.10
   1   0  29   51.79    6.70
   1   0  29   42.70    7.70
   1   0  29   58.29    7.10
   1   0  29   72.09   11.10
  -2  -1  29   -0.10    1.80
   2  -1 -29    0.30    2.60
  -2   1  29   -2.00    1.20
  -2   1  29   -3.80    3.30
   1  -1 -29   35.30    7.10
  -1  -1  29   24.40    4.20
  -1  -1  29   14.00    5.40
  -1   1  29   24.90    5.40
  -1   1  29   20.50    3.80
   0  -1  29    1.30    3.30
   0  -1  29    5.60    5.10
   0  -1  29   -1.50    1.30
   0   1  29   -2.60    1.40
   0   1  29   -0.30    2.10
   0   1  29    6.70    5.30
   0   1  29   -2.40    2.30
   1  -1  29    2.70    2.60
   1  -1  29    4.40    7.60
   1  -1  29    1.00    2.10
   1  -1  29    3.70    3.10
   1   1  29   -1.70    2.60
   1   1  29    1.80    4.50
   1   1  29    2.20    2.20
   1   1  29    3.80    2.50
  -2  -2  29    1.30    1.70
   2  -2 -29    5.90    2.40
  -2   2  29    0.40    1.60
  -2   2  29   -1.90    2.20
  -1  -2  29   -2.70    3.20
  -1  -2  29    2.70    1.90
   1  -2 -29    7.80    3.00
  -1   2  29    2.80    1.90
  -1   2  29    1.50    2.20
   0  -2  29   15.00    4.30
   0  -2 -29    7.30    4.50
   0  -2  29    1.00    2.80
   0   2  29   15.40    3.70
   0   2  29    3.50    2.80
   0   2  29   17.00    3.80
   1  -2  29   29.60    5.80
  -1  -2 -29   32.60    6.50
   1  -2  29   34.80    5.40
   1  -2  29   37.90   10.10
   1   2  29   37.80    5.40
   1   2  29   35.20    7.30
   1   2  29   36.50    6.60
   1   2  29   51.99    6.40
   1  -3 -29   -2.60    2.30
  -1  -3  29    6.90    3.00
  -1   3  29    9.20    2.50
  -1   3  29    4.30    2.70
  -1   3  29    2.00    3.50
   0  -3 -29    4.70    3.10
   0  -3  29    8.30    7.00
   0  -3  29    6.00    8.20
   0   3  29    3.90    2.20
   0   3  29    1.50    2.00
   0   3  29    1.80    2.80
   1  -3  29    0.30    2.30
  -1  -3 -29    2.50    3.40
   1   3  29    1.20    1.80
   1   3  29    3.40    2.40
   1  -4 -29   -3.60    2.10
  -1   4  29    2.50    1.90
  -1   4  29   -0.40    2.70
  -1   4  29    0.40    1.90
   0  -4 -29    3.20    2.60
   0   4  29    0.10    1.60
   0   4  29    2.80    2.10
   0   4  29   -3.00    1.80
  -1   0  30    3.40    1.70
  -1   0  30    1.10    2.90
   0   0  30    0.40    2.10
   0   0  30    0.80    1.60
   0   0  30    7.10    4.00
   1   0  30    0.80    2.20
   1   0  30   -1.70    7.20
   1   0  30   -2.40    2.40
   1   0  30    1.00    3.00
  -1  -1  30   -0.40    2.40
  -1   1  30   -1.50    0.90
  -1   1  30   -1.00    1.70
   0  -1  30    5.40    2.20
   0  -1  30   -1.80    2.40
   0   1  30    2.00    1.50
   0   1  30    3.80    3.10
   0   1  30    3.00    2.80
   1  -1  30   -0.20    3.00
   1  -1  30    2.70    2.00
   1  -1  30    1.00    2.50
   1   1  30    4.00    3.30
   1   1  30    4.00    7.00
   1   1  30    2.20    2.10
   1   1  30    0.20    3.30
   1  -2 -30   -4.00    3.30
  -1  -2  30    5.40    2.40
  -1  -2  30    1.80    6.10
  -1   2  30    2.80    1.80
  -1   2  30    0.30    1.80
   0  -2  30    5.10    3.70
   0  -2  30   -0.80    3.60
   0   2  30    2.40    2.20
   0   2  30    0.60    1.80
   0   2  30    3.10    1.60
   1  -2  30   -3.10    2.60
   1  -2  30    2.50    8.40
   1   2  30   -0.70    1.90
  -1  -3  30    4.10    5.10
   1  -3 -30    7.30    3.00
  -1   3  30    0.00    2.40
  -1   3  30    5.00    1.90
   0  -3 -30    7.00    3.80
   0  -3  30    7.40    8.40
   0   3  30    6.70    2.90
   0   3  30    5.90    3.60
  -1   0  31    1.90    2.70
  -1   0  31    4.80    2.30
   0   0  31   -1.10    1.70
   0   0  31   -0.50    2.20
  -1  -1  31    6.00    2.10
  -1  -1  31    4.50    3.90
  -1   1  31    2.70    2.00
  -1   1  31    0.50    2.50
   0  -1  31   -1.10    2.10
   0  -1  31    0.80    2.60
   0   1  31    1.40    1.80
   0   1  31    1.90    1.50
   0   0   0    0.00    0.00

_computing_structure_solution     'SHELXT 2014/5 (Sheldrick, 2014)'
;
_shelx_hkl_checksum              96179
loop_
_space_group_symop_operation_xyz
'x, y, z'
'-x+1/2, y+1/2, -z+1/2'
'-x, -y, -z'
'x-1/2, -y-1/2, z-1/2'
loop_
_atom_site_label
_atom_site_type_symbol
_atom_site_fract_x
_atom_site_fract_y
_atom_site_fract_z
_atom_site_U_iso_or_equiv
_atom_site_adp_type
_atom_site_occupancy
_atom_site_site_symmetry_order
_atom_site_calc_flag
_atom_site_refinement_flags_posn
_atom_site_refinement_flags_adp
_atom_site_refinement_flags_occupancy
_atom_site_disorder_assembly
_atom_site_disorder_group
Br1 Br 0.11320(13) 0.20416(7) 0.46214(2) 0.1201(3) Uani 1 1 d . . . . .
C1 C 0.3323(9) 0.2596(5) 0.52111(16) 0.0787(10) Uani 1 1 d . . . . .
N1 N 1.1013(6) 0.7305(2) 0.69116(11) 0.0637(7) Uani 1 1 d . . . . .
O1 O 0.9035(7) 0.2114(3) 0.70558(11) 0.0939(10) Uani 1 1 d . . . . .
H1 H 0.953(9) 0.133(6) 0.7020(17) 0.141 Uiso 1 1 calc R U . . .
N3 N 1.0810(7) 0.9482(3) 0.68656(13) 0.0747(8) Uani 1 1 d . . . . .
C3 C 0.4842(8) 0.4339(4) 0.57877(17) 0.0795(11) Uani 1 1 d . . . . .
H3 H 0.470276 0.523100 0.589676 0.095 Uiso 1 1 calc R U . . .
N2 N 1.2910(7) 0.7640(3) 0.65681(15) 0.0843(9) Uani 1 1 d . . . . .
C2 C 0.3183(9) 0.3907(5) 0.53747(18) 0.0903(12) Uani 1 1 d . . . . .
H2 H 0.196003 0.450730 0.520541 0.108 Uiso 1 1 calc R U . . .
C5 C 0.6741(10) 0.2148(4) 0.58815(16) 0.0787(10) Uani 1 1 d . . . . .
H5 H 0.792541 0.153577 0.605408 0.094 Uiso 1 1 calc R U . . .
C4 C 0.6713(7) 0.3485(3) 0.60456(13) 0.0574(7) Uani 1 1 d . . . . .
C8 C 0.8601(6) 0.3971(3) 0.64720(12) 0.0544(7) Uani 1 1 d . . . . .
C7 C 1.0515(8) 0.2954(3) 0.67288(16) 0.0706(10) Uani 1 1 d . . . . .
H7A H 1.136503 0.240772 0.646998 0.085 Uiso 1 1 calc R U . . .
H7B H 1.199195 0.341744 0.692714 0.085 Uiso 1 1 calc R U . . .
C6 C 0.5056(11) 0.1703(4) 0.54688(17) 0.0908(12) Uani 1 1 d . . . . .
H6 H 0.510410 0.080222 0.536733 0.109 Uiso 1 1 calc R U . . .
C9 C 0.8639(8) 0.5260(3) 0.66146(14) 0.0699(9) Uani 1 1 d . . . . .
H9 H 0.740998 0.583432 0.643316 0.084 Uiso 1 1 calc R U . . .
C10 C 1.0446(9) 0.5889(3) 0.70357(15) 0.0793(11) Uani 1 1 d . . . . .
H10A H 0.951551 0.584072 0.735723 0.095 Uiso 1 1 calc R U . . .
H10B H 1.218910 0.539534 0.707748 0.095 Uiso 1 1 calc R U . . .
C11 C 0.9787(8) 0.8395(3) 0.70752(15) 0.0678(9) Uani 1 1 d . . . . .
H11 H 0.838220 0.839893 0.730823 0.081 Uiso 1 1 calc R U . . .
C12 C 1.2707(9) 0.8962(4) 0.65580(17) 0.0809(11) Uani 1 1 d . . . . .
H12 H 1.379211 0.949889 0.635374 0.097 Uiso 1 1 calc R U . . .
loop_
_atom_site_aniso_label
_atom_site_aniso_U_11
_atom_site_aniso_U_22
_atom_site_aniso_U_33
_atom_site_aniso_U_23
_atom_site_aniso_U_13
_atom_site_aniso_U_12
Br1 0.1282(5) 0.1499(6) 0.0802(4) -0.0082(3) -0.0135(3) -0.0362(4)
C1 0.082(3) 0.088(3) 0.066(2) -0.002(2) 0.0061(18) -0.020(2)
N1 0.0818(19) 0.0378(13) 0.0702(17) -0.0001(12) -0.0093(14) 0.0036(12)
O1 0.153(3) 0.0527(14) 0.0780(18) 0.0144(13) 0.0284(18) 0.0282(16)
N3 0.093(2) 0.0390(14) 0.092(2) 0.0022(14) -0.0021(18) -0.0040(14)
C3 0.078(2) 0.0543(19) 0.105(3) 0.0009(19) -0.010(2) 0.0036(17)
N2 0.094(2) 0.0647(19) 0.095(2) 0.0055(18) 0.0153(19) 0.0139(17)
C2 0.082(3) 0.080(3) 0.106(3) 0.012(2) -0.017(2) 0.001(2)
C5 0.108(3) 0.052(2) 0.075(2) -0.0077(17) -0.003(2) 0.0100(19)
C4 0.0648(18) 0.0422(15) 0.0665(19) 0.0028(14) 0.0155(15) -0.0011(14)
C8 0.0632(18) 0.0346(14) 0.0660(18) 0.0060(13) 0.0095(14) 0.0037(13)
C7 0.083(2) 0.0373(16) 0.091(3) 0.0017(16) -0.0059(19) 0.0055(15)
C6 0.128(4) 0.069(2) 0.076(3) -0.015(2) 0.001(2) -0.001(2)
C9 0.090(2) 0.0387(16) 0.079(2) 0.0031(15) -0.0098(19) 0.0098(16)
C10 0.121(3) 0.0366(16) 0.078(2) 0.0018(16) -0.020(2) 0.0026(18)
C11 0.083(2) 0.0429(17) 0.078(2) -0.0034(16) 0.0017(18) 0.0005(16)
C12 0.086(3) 0.067(2) 0.089(3) 0.010(2) 0.001(2) -0.008(2)
loop_
_atom_type_symbol
_atom_type_description
_atom_type_scat_dispersion_real
_atom_type_scat_dispersion_imag
_atom_type_scat_source
C C 0.0181 0.0091 'International Tables Vol C Tables 4.2.6.8 and 6.1.1.4'
H H 0.0000 0.0000 'International Tables Vol C Tables 4.2.6.8 and 6.1.1.4'
Br Br -0.6763 1.2805 'International Tables Vol C Tables 4.2.6.8 and 6.1.1.4'
N N 0.0311 0.0180 'International Tables Vol C Tables 4.2.6.8 and 6.1.1.4'
O O 0.0492 0.0322 'International Tables Vol C Tables 4.2.6.8 and 6.1.1.4'
loop_
_geom_angle_atom_site_label_1
_geom_angle_atom_site_label_2
_geom_angle_atom_site_label_3
_geom_angle
_geom_angle_site_symmetry_1
_geom_angle_site_symmetry_3
_geom_angle_publ_flag
C6 C1 C2 119.9(4) . . ?
C6 C1 Br1 120.6(3) . . ?
C2 C1 Br1 119.5(3) . . ?
C11 N1 N2 110.0(3) . . ?
C11 N1 C10 128.5(4) . . ?
N2 N1 C10 121.4(3) . . ?
C7 O1 H1 109.5 . . ?
C11 N3 C12 102.3(3) . . ?
C2 C3 C4 121.7(4) . . ?
C2 C3 H3 119.1 . . ?
C4 C3 H3 119.1 . . ?
C12 N2 N1 101.9(3) . . ?
C1 C2 C3 120.3(4) . . ?
C1 C2 H2 119.9 . . ?
C3 C2 H2 119.9 . . ?
C6 C5 C4 121.8(4) . . ?
C6 C5 H5 119.1 . . ?
C4 C5 H5 119.1 . . ?
C3 C4 C5 116.7(3) . . ?
C3 C4 C8 121.6(3) . . ?
C5 C4 C8 121.7(3) . . ?
C9 C8 C4 121.5(3) . . ?
C9 C8 C7 121.4(3) . . ?
C4 C8 C7 117.1(3) . . ?
O1 C7 C8 110.4(3) . . ?
O1 C7 H7A 109.6 . . ?
C8 C7 H7A 109.6 . . ?
O1 C7 H7B 109.6 . . ?
C8 C7 H7B 109.6 . . ?
H7A C7 H7B 108.1 . . ?
C1 C6 C5 119.5(4) . . ?
C1 C6 H6 120.2 . . ?
C5 C6 H6 120.2 . . ?
C8 C9 C10 127.1(3) . . ?
C8 C9 H9 116.5 . . ?
C10 C9 H9 116.5 . . ?
N1 C10 C9 110.1(3) . . ?
N1 C10 H10A 109.6 . . ?
C9 C10 H10A 109.6 . . ?
N1 C10 H10B 109.6 . . ?
C9 C10 H10B 109.6 . . ?
H10A C10 H10B 108.2 . . ?
N1 C11 N3 110.8(3) . . ?
N1 C11 H11 124.6 . . ?
N3 C11 H11 124.6 . . ?
N2 C12 N3 114.9(4) . . ?
N2 C12 H12 122.6 . . ?
N3 C12 H12 122.5 . . ?
loop_
_geom_bond_atom_site_label_1
_geom_bond_atom_site_label_2
_geom_bond_distance
_geom_bond_site_symmetry_2
_geom_bond_publ_flag
Br1 C1 1.896(4) . ?
C1 C6 1.365(6) . ?
C1 C2 1.368(6) . ?
N1 C11 1.311(4) . ?
N1 N2 1.350(4) . ?
N1 C10 1.466(4) . ?
O1 C7 1.408(5) . ?
O1 H1 0.82(6) . ?
N3 C11 1.312(4) . ?
N3 C12 1.346(5) . ?
C3 C2 1.372(5) . ?
C3 C4 1.382(5) . ?
C3 H3 0.9300 . ?
N2 C12 1.311(5) . ?
C2 H2 0.9300 . ?
C5 C6 1.382(6) . ?
C5 C4 1.390(5) . ?
C5 H5 0.9300 . ?
C4 C8 1.476(5) . ?
C8 C9 1.328(4) . ?
C8 C7 1.496(4) . ?
C7 H7A 0.9700 . ?
C7 H7B 0.9700 . ?
C6 H6 0.9300 . ?
C9 C10 1.497(5) . ?
C9 H9 0.9300 . ?
C10 H10A 0.9700 . ?
C10 H10B 0.9700 . ?
C11 H11 0.9300 . ?
C12 H12 0.9300 . ?
loop_
_geom_torsion_atom_site_label_1
_geom_torsion_atom_site_label_2
_geom_torsion_atom_site_label_3
_geom_torsion_atom_site_label_4
_geom_torsion
_geom_torsion_site_symmetry_1
_geom_torsion_site_symmetry_2
_geom_torsion_site_symmetry_3
_geom_torsion_site_symmetry_4
_geom_torsion_publ_flag
C11 N1 N2 C12 1.2(4) . . . . ?
C10 N1 N2 C12 178.0(3) . . . . ?
C6 C1 C2 C3 2.0(7) . . . . ?
Br1 C1 C2 C3 -177.2(3) . . . . ?
C4 C3 C2 C1 0.9(7) . . . . ?
C2 C3 C4 C5 -2.9(6) . . . . ?
C2 C3 C4 C8 176.7(4) . . . . ?
C6 C5 C4 C3 2.3(6) . . . . ?
C6 C5 C4 C8 -177.3(4) . . . . ?
C3 C4 C8 C9 -2.2(5) . . . . ?
C5 C4 C8 C9 177.4(4) . . . . ?
C3 C4 C8 C7 179.2(3) . . . . ?
C5 C4 C8 C7 -1.2(5) . . . . ?
C9 C8 C7 O1 105.6(4) . . . . ?
C4 C8 C7 O1 -75.7(4) . . . . ?
C2 C1 C6 C5 -2.5(7) . . . . ?
Br1 C1 C6 C5 176.6(3) . . . . ?
C4 C5 C6 C1 0.4(7) . . . . ?
C4 C8 C9 C10 -179.6(4) . . . . ?
C7 C8 C9 C10 -1.0(6) . . . . ?
C11 N1 C10 C9 98.9(4) . . . . ?
N2 N1 C10 C9 -77.3(5) . . . . ?
C8 C9 C10 N1 150.0(4) . . . . ?
N2 N1 C11 N3 -1.4(4) . . . . ?
C10 N1 C11 N3 -177.9(3) . . . . ?
C12 N3 C11 N1 1.0(4) . . . . ?
N1 N2 C12 N3 -0.6(5) . . . . ?
C11 N3 C12 N2 -0.2(5) . . . . ?
