#------------------------------------------------------------------------------
#$Date: 2023-11-06 10:21:14 +0200 (Mon, 06 Nov 2023) $
#$Revision: 287412 $
#$URL: file:///home/coder/svn-repositories/cod/cif/7/15/95/7159588.cif $
#------------------------------------------------------------------------------
#
# This file is available in the Crystallography Open Database (COD),
# http://www.crystallography.net/
#
# All data on this site have been placed in the public domain by the
# contributors.
#
data_7159588
loop_
_publ_author_name
'Rao, Han-Wen'
'Zhao, Tian-Lan'
'Wang, Long'
'Deng, Hong-Dan'
'Zhang, Yan-Ping'
'You, Yong'
'Wang, Zhen-Hua'
'Zhao, Jian-Qiang'
'Yuan, Wei-Cheng'
_publ_section_title
;
 Palladium-catalyzed decarboxylative &#x3b1;-allylation of thiazolidinones
 and azlactones with sulfonamido-substituted acyclic allylic carbonates.
;
_journal_issue                   42
_journal_name_full               'Organic &amp; biomolecular chemistry'
_journal_page_first              8593
_journal_page_last               8602
_journal_paper_doi               10.1039/d3ob01404e
_journal_volume                  21
_journal_year                    2023
_chemical_formula_moiety         'C27 H25 Cl N2 O4 S'
_chemical_formula_sum            'C27 H25 Cl N2 O4 S'
_chemical_formula_weight         509.00
_space_group_crystal_system      triclinic
_space_group_IT_number           2
_space_group_name_Hall           '-P 1'
_space_group_name_H-M_alt        'P -1'
_atom_sites_solution_hydrogens   mixed
_atom_sites_solution_primary     dual
_audit_creation_date             2023-05-20
_audit_creation_method
;
Olex2 1.5-beta
(compiled 2022.04.07 svn.rca3783a0 for OlexSys, GUI svn.r6439)
;
_audit_update_record
;
2023-06-29 deposited with the CCDC.	2023-10-13 downloaded from the CCDC.
;
_cell_angle_alpha                67.633(2)
_cell_angle_beta                 85.5240(10)
_cell_angle_gamma                70.287(2)
_cell_formula_units_Z            2
_cell_length_a                   10.1642(2)
_cell_length_b                   11.1077(2)
_cell_length_c                   12.6071(2)
_cell_measurement_reflns_used    10345
_cell_measurement_temperature    99.98(10)
_cell_measurement_theta_max      71.2000
_cell_measurement_theta_min      4.5660
_cell_volume                     1237.05(5)
_computing_cell_refinement       'CrysAlisPro 1.171.39.33c (Rigaku OD, 2017)'
_computing_data_collection       'CrysAlisPro 1.171.39.33c (Rigaku OD, 2017)'
_computing_data_reduction        'CrysAlisPro 1.171.39.33c (Rigaku OD, 2017)'
_computing_molecular_graphics    'Olex2 1.5-beta (Dolomanov et al., 2009)'
_computing_publication_material  'Olex2 1.5-beta (Dolomanov et al., 2009)'
_computing_structure_refinement  'SHELXL 2018/3 (Sheldrick, 2015)'
_computing_structure_solution    'SHELXT 2014/5 (Sheldrick, 2014)'
_diffrn_ambient_environment      N~2~
_diffrn_ambient_temperature      99.98(10)
_diffrn_detector                 'CCD plate'
_diffrn_measured_fraction_theta_full 0.990
_diffrn_measured_fraction_theta_max 0.967
_diffrn_measurement_details
;
List of Runs (angles in degrees, time in seconds):

  # Type    Start    End  Width  t~exp~   \w     \q     \k     \f   Frames
#--------------------------------------------------------------------------
  1  \w     12.00 132.00   0.50    0.50    --   42.10  57.00-180.00  240
  2  \w     -6.00  78.00   0.50    0.50    --   42.10 -82.00  30.00  168
  3  \w     27.00  86.00   0.50    0.50    --   42.10 -82.00-150.00  118
  4  \w     80.00 105.00   0.50    0.50    --   42.10  77.00 -90.00   50
  5  \w     11.00  87.00   0.50    0.50    --   42.10 -38.00 -30.00  152
  6  \w    106.00 132.00   0.50    0.50    --   42.10  77.00 -60.00   52
  7  \w    -46.00   2.00   0.50    0.50    --   42.10 -38.00 -30.00   96
  8  \w     83.00 130.00   0.50    0.50    --   42.10  77.00  60.00   94
  9  \w      2.00  67.00   0.50    0.50    --   42.10 -57.00-150.00  130
 10  \w     16.00 126.00   0.50    0.50    --  101.60 -82.00-180.00  220
 11  \w     71.00  97.00   0.50    0.50    --  101.60 -82.00 -90.00   52
 12  \w     47.00 145.00   0.50    0.50    --  101.60 -82.00-120.00  196
 13  \w     75.00 101.00   0.50    0.50    --  101.60 -82.00-150.00   52
 14  \w     73.00  99.00   0.50    0.50    --  101.60 -82.00 -30.00   52
 15  \w     12.00  65.00   0.50    0.50    --  101.60 -82.00 -90.00  106
 16  \w     63.00  89.00   0.50    0.50    --  101.60 -82.00 150.00   52
 17  \w     25.00 191.00   0.50    0.50    --  101.60  25.00   0.00  332
 18  \w     27.00 124.00   0.50    0.50    --  101.60 -82.00  30.00  194
 19  \w     84.00 148.00   0.50    0.50    --  101.60  64.00  90.00  128
 20  \w     46.00 132.00   0.50    0.50    --  101.60 -82.00 -60.00  172
 21  \w     15.00  51.00   0.50    0.50    --  101.60 -64.00 150.00   72
 22  \w     79.00 105.00   0.50    0.50    --  101.60 -64.00 150.00   52
 23  \w     13.00  87.00   0.50    0.50    --  101.60 -64.00  60.00  148
 24  \w    131.00 156.00   0.50    0.50    --  101.60  82.00   0.00   50
 25  \w     53.00  79.00   0.50    0.50    --  101.60 -50.00-120.00   52
 26  \w     96.00 132.00   0.50    0.50    --  101.60 -50.00-120.00   72
 27  \w     73.00 188.00   0.50    0.50    --  101.60  50.00-120.00  230
 28  \w     93.00 122.00   0.50    0.50    --  101.60  82.00   0.00   58
 29  \w     12.00  45.00   0.50    0.50    --  101.60 -82.00 150.00   66
 30  \w     73.00 106.00   0.50    0.50    --  101.60 -82.00  90.00   66
 31  \w    134.00 181.00   0.50    0.50    --  101.60  50.00-150.00   94
 32  \w    -23.00   4.00   0.50    0.50    --   42.10 -57.00-180.00   54
 33  \w    155.00 181.00   0.50    0.50    --  101.60  82.00 -30.00   52
 34  \w    166.00 191.00   0.50    0.50    --  101.60 -12.00 -60.00   50
 35  \w     61.00  87.00   0.50    0.50    --  101.60 -12.00 -60.00   52
;
_diffrn_measurement_device       'four-circle diffractometer'
_diffrn_measurement_device_type  'XtaLAB AFC12 (RINC): Kappa single'
_diffrn_measurement_method       '\w scans'
_diffrn_orient_matrix_type
'CrysAlisPro convention (1999,Acta A55,543-557)'
_diffrn_orient_matrix_UB_11      0.0525949000
_diffrn_orient_matrix_UB_12      -0.1401463000
_diffrn_orient_matrix_UB_13      -0.0140050000
_diffrn_orient_matrix_UB_21      -0.0353096000
_diffrn_orient_matrix_UB_22      -0.0710469000
_diffrn_orient_matrix_UB_23      0.1244271000
_diffrn_orient_matrix_UB_31      -0.1483103000
_diffrn_orient_matrix_UB_32      0.0249370000
_diffrn_orient_matrix_UB_33      -0.0429086000
_diffrn_radiation_monochromator  mirror
_diffrn_radiation_probe          x-ray
_diffrn_radiation_type           'Cu K\a'
_diffrn_radiation_wavelength     1.54184
_diffrn_reflns_av_R_equivalents  0.0207
_diffrn_reflns_av_unetI/netI     0.0184
_diffrn_reflns_Laue_measured_fraction_full 0.990
_diffrn_reflns_Laue_measured_fraction_max 0.967
_diffrn_reflns_limit_h_max       10
_diffrn_reflns_limit_h_min       -12
_diffrn_reflns_limit_k_max       13
_diffrn_reflns_limit_k_min       -13
_diffrn_reflns_limit_l_max       15
_diffrn_reflns_limit_l_min       -15
_diffrn_reflns_number            12363
_diffrn_reflns_point_group_measured_fraction_full 0.990
_diffrn_reflns_point_group_measured_fraction_max 0.967
_diffrn_reflns_theta_full        67.684
_diffrn_reflns_theta_max         71.516
_diffrn_reflns_theta_min         3.798
_diffrn_source                   'Rotating-anode X-ray tube'
_diffrn_source_type              'Rigaku (Cu) X-ray Source'
_exptl_absorpt_coefficient_mu    2.460
_exptl_absorpt_correction_T_max  1.00000
_exptl_absorpt_correction_T_min  0.42326
_exptl_absorpt_correction_type   multi-scan
_exptl_absorpt_process_details
;
CrysAlisPro 1.171.39.33c (Rigaku Oxford Diffraction, 2017)
Empirical absorption correction using spherical harmonics,
 implemented in SCALE3 ABSPACK scaling algorithm.
;
_exptl_crystal_colour            'clear light colourless'
_exptl_crystal_density_diffrn    1.366
_exptl_crystal_description       block
_exptl_crystal_F_000             532
_exptl_crystal_size_max          0.14
_exptl_crystal_size_mid          0.12
_exptl_crystal_size_min          0.11
_refine_diff_density_max         0.340
_refine_diff_density_min         -0.540
_refine_diff_density_rms         0.058
_refine_ls_extinction_method     none
_refine_ls_goodness_of_fit_ref   1.050
_refine_ls_hydrogen_treatment    mixed
_refine_ls_matrix_type           full
_refine_ls_number_parameters     329
_refine_ls_number_reflns         4679
_refine_ls_number_restraints     0
_refine_ls_restrained_S_all      1.050
_refine_ls_R_factor_all          0.0373
_refine_ls_R_factor_gt           0.0365
_refine_ls_shift/su_max          0.001
_refine_ls_shift/su_mean         0.000
_refine_ls_structure_factor_coef Fsqd
_refine_ls_weighting_details
'w=1/[\s^2^(Fo^2^)+(0.0571P)^2^+0.5594P] where P=(Fo^2^+2Fc^2^)/3'
_refine_ls_weighting_scheme      calc
_refine_ls_wR_factor_gt          0.0976
_refine_ls_wR_factor_ref         0.0982
_reflns_Friedel_coverage         0.000
_reflns_number_gt                4510
_reflns_number_total             4679
_reflns_threshold_expression     'I > 2\s(I)'
_cod_data_source_file            d3ob01404e2.cif
_cod_data_source_block           0518zjq-1
_cod_depositor_comments          'Adding full bibliography for 7159588.cif.'
_cod_original_cell_volume        1237.06(4)
_cod_database_code               7159588
_shelx_shelxl_version_number     2018/3
_chemical_oxdiff_formula         'C H O N S'
_shelx_space_group_comment
;
The symmetry employed for this shelxl refinement is uniquely defined
by the following loop, which should always be used as a source of
symmetry information in preference to the above space-group names.
They are only intended as comments.
;
_olex2_refinement_description
;
1. Fixed Uiso
 At 1.2 times of:
  All C(H) groups, All C(H,H) groups
 At 1.5 times of:
  All C(H,H,H) groups
2.a Secondary CH2 refined with riding coordinates:
 C1(H1A,H1B), C3(H3A,H3B), C13(H13A,H13B)
2.b Aromatic/amide H refined with riding coordinates:
 C8(H8), C9(H9), C11(H11), C12(H12), C15(H15), C16(H16), C17(H17), C18(H18),
 C19(H19), C21(H21), C22(H22), C24(H24), C25(H25)
2.c Idealised Me refined as rotating group:
 C26(H26A,H26B,H26C)
;
_shelx_res_file
;
TITL 0518zjq-1_a.res in P-1
    0518zjq-1.res
    created by SHELXL-2018/3 at 18:53:33 on 20-May-2023
REM Old TITL 0518zjq-1 in P-1
REM SHELXT solution in P-1
REM R1 0.129, Rweak 0.008, Alpha 0.040, Orientation as input
REM Formula found by SHELXT: C22 N2 O4 S2
CELL 1.54184 10.1642 11.1077 12.6071 67.633 85.524 70.287
ZERR 2 0.0002 0.0002 0.0002 0.002 0.001 0.002
LATT 1
SFAC C H Cl N O S
UNIT 54 50 2 4 8 2

L.S. 20
PLAN  8
TEMP -173
CONF
BOND $H
LIST 4
MORE -1
fmap 2
ACTA
REM <olex2.extras>
REM <HklSrc "%.\\0518zjq-1.hkl">
REM </olex2.extras>

WGHT    0.057100    0.559400
FVAR       0.78847
CL1   3    0.657476   -0.232588    0.737902    11.00000    0.03346    0.01694 =
         0.05645   -0.00052   -0.01348   -0.00319
S1    6    0.124857    0.762047    0.659101    11.00000    0.02687    0.01815 =
         0.01895   -0.00600    0.00150   -0.00708
O1    5   -0.014895    0.854205    0.654171    11.00000    0.03136    0.02236 =
         0.02734   -0.00888    0.00217   -0.00139
O2    5    0.240239    0.802911    0.670498    11.00000    0.03770    0.02665 =
         0.02396   -0.00929    0.00219   -0.01665
O3    5    0.356056    0.590273    0.584250    11.00000    0.01952    0.02164 =
         0.01713   -0.00375   -0.00137   -0.00840
O4    5    0.191909    0.400914    0.587951    11.00000    0.01952    0.02215 =
         0.02926   -0.00191    0.00392   -0.00799
N1    4    0.133188    0.735348    0.534146    11.00000    0.02037    0.01807 =
         0.01810   -0.00505   -0.00102   -0.00505
N2    4    0.338789    0.455184    0.447091    11.00000    0.01705    0.01426 =
         0.01970   -0.00240   -0.00035   -0.00586
C1    1   -0.000293    0.796330    0.462014    11.00000    0.02029    0.02308 =
         0.02627   -0.00636   -0.00421   -0.00243
AFIX  23
H1A   2   -0.042242    0.895546    0.449094    11.00000   -1.20000
H1B   2   -0.067440    0.749595    0.502701    11.00000   -1.20000
AFIX   0
C2    1    0.026373    0.780264    0.348899    11.00000    0.01851    0.02186 =
         0.02532   -0.00704   -0.00411   -0.00655
C3    1    0.112574    0.636685    0.359567    11.00000    0.01839    0.01853 =
         0.02190   -0.00537   -0.00265   -0.00660
AFIX  23
H3A   2    0.119941    0.630110    0.283052    11.00000   -1.20000
H3B   2    0.067866    0.570173    0.409955    11.00000   -1.20000
AFIX   0
C4    1    0.258851    0.602657    0.410992    11.00000    0.01769    0.01410 =
         0.01860   -0.00264   -0.00128   -0.00581
C5    1    0.252983    0.640202    0.518028    11.00000    0.01976    0.01548 =
         0.01729   -0.00157    0.00108   -0.00922
C6    1    0.300252    0.364432    0.541360    11.00000    0.01838    0.01996 =
         0.02147   -0.00333   -0.00141   -0.00945
C7    1    0.396885    0.217640    0.586377    11.00000    0.01962    0.01824 =
         0.02476   -0.00264   -0.00272   -0.00930
C8    1    0.511927    0.164885    0.529927    11.00000    0.02403    0.01865 =
         0.02481   -0.00605   -0.00170   -0.01035
AFIX  43
H8    2    0.532814    0.223411    0.458115    11.00000   -1.20000
AFIX   0
C9    1    0.596376    0.027120    0.578015    11.00000    0.02316    0.02156 =
         0.03533   -0.01112   -0.00298   -0.00754
AFIX  43
H9    2    0.676073   -0.008576    0.540559    11.00000   -1.20000
AFIX   0
C10   1    0.562272   -0.056620    0.681007    11.00000    0.02388    0.01696 =
         0.04057   -0.00201   -0.00935   -0.00594
C11   1    0.450347   -0.006326    0.739888    11.00000    0.03262    0.02453 =
         0.03967    0.00872    0.00168   -0.00915
AFIX  43
H11   2    0.430160   -0.065339    0.811762    11.00000   -1.20000
AFIX   0
C12   1    0.368261    0.131376    0.692370    11.00000    0.02514    0.02430 =
         0.03664    0.00221    0.00555   -0.00714
AFIX  43
H12   2    0.291697    0.167431    0.732370    11.00000   -1.20000
AFIX   0
C13   1    0.344358    0.685817    0.324662    11.00000    0.02036    0.01710 =
         0.01700   -0.00289   -0.00095   -0.00875
AFIX  23
H13A  2    0.312664    0.780341    0.324885    11.00000   -1.20000
H13B  2    0.444155    0.642005    0.352275    11.00000   -1.20000
AFIX   0
C14   1    0.333238    0.696471    0.202284    11.00000    0.01897    0.02017 =
         0.01715   -0.00257   -0.00108   -0.00803
C15   1    0.364006    0.581071    0.172802    11.00000    0.02267    0.02164 =
         0.02016   -0.00473   -0.00003   -0.00861
AFIX  43
H15   2    0.395391    0.491122    0.231059    11.00000   -1.20000
AFIX   0
C16   1    0.349262    0.596304    0.059460    11.00000    0.02857    0.03211 =
         0.02474   -0.01292    0.00302   -0.01258
AFIX  43
H16   2    0.370064    0.516801    0.040928    11.00000   -1.20000
AFIX   0
C17   1    0.304339    0.726840   -0.027118    11.00000    0.03253    0.04107 =
         0.01799   -0.00892   -0.00160   -0.01137
AFIX  43
H17   2    0.294422    0.737157   -0.104712    11.00000   -1.20000
AFIX   0
C18   1    0.274165    0.841914    0.001309    11.00000    0.04133    0.02924 =
         0.01853    0.00057   -0.00364   -0.00522
AFIX  43
H18   2    0.243232    0.931721   -0.057185    11.00000   -1.20000
AFIX   0
C19   1    0.288870    0.826696    0.114618    11.00000    0.03571    0.02019 =
         0.02058   -0.00291   -0.00072   -0.00705
AFIX  43
H19   2    0.268320    0.906480    0.132706    11.00000   -1.20000
AFIX   0
C20   1    0.139972    0.600041    0.766735    11.00000    0.02709    0.02087 =
         0.01677   -0.00649    0.00170   -0.00770
C21   1    0.268302    0.510914    0.822407    11.00000    0.02706    0.02810 =
         0.02017   -0.00761    0.00017   -0.00931
AFIX  43
H21   2    0.349839    0.536683    0.803725    11.00000   -1.20000
AFIX   0
C22   1    0.275923    0.383448    0.905861    11.00000    0.03750    0.02527 =
         0.02169   -0.00555   -0.00508   -0.00510
AFIX  43
H22   2    0.363730    0.321559    0.944091    11.00000   -1.20000
AFIX   0
C23   1    0.157440    0.344578    0.934599    11.00000    0.05063    0.02648 =
         0.02039   -0.00706   -0.00062   -0.01737
C24   1    0.029745    0.436165    0.877676    11.00000    0.04132    0.03853 =
         0.02775   -0.00824    0.00409   -0.02496
AFIX  43
H24   2   -0.052105    0.411034    0.896902    11.00000   -1.20000
AFIX   0
C25   1    0.020129    0.563290    0.793493    11.00000    0.02757    0.03178 =
         0.02554   -0.00615    0.00103   -0.01129
AFIX  43
H25   2   -0.067368    0.624760    0.754422    11.00000   -1.20000
AFIX   0
C26   1    0.166044    0.205722    1.025824    11.00000    0.07802    0.03119 =
         0.03201   -0.00195   -0.00481   -0.02765
AFIX 137
H26A  2    0.264092    0.145501    1.042010    11.00000   -1.50000
H26B  2    0.112281    0.163633    0.998483    11.00000   -1.50000
H26C  2    0.127339    0.217989    1.096134    11.00000   -1.50000
AFIX   0
C27   1   -0.024238    0.885627    0.250817    11.00000    0.03052    0.02293 =
         0.02785   -0.00560   -0.00823   -0.00336
H27A  2   -0.010428    0.874135    0.178858    11.00000    0.03188
H27B  2   -0.075038    0.972161    0.252359    11.00000    0.03921
H2    2    0.428103    0.434283    0.433808    11.00000    0.03404
HKLF 4




REM  0518zjq-1_a.res in P-1
REM wR2 = 0.0982, GooF = S = 1.050, Restrained GooF = 1.050 for all data
REM R1 = 0.0365 for 4510 Fo > 4sig(Fo) and 0.0373 for all 4679 data
REM 329 parameters refined using 0 restraints

END

WGHT      0.0571      0.5598

REM Highest difference peak  0.340,  deepest hole -0.540,  1-sigma level  0.058
Q1    1   0.3415  0.6879  0.2658  11.00000  0.05    0.34
Q2    1   0.1405  0.7597  0.5815  11.00000  0.05    0.28
Q3    1   0.2051  0.1897  1.1089  11.00000  0.05    0.24
Q4    1   0.0124  0.7958  0.3955  11.00000  0.05    0.22
Q5    1   0.2558  0.6226  0.4634  11.00000  0.05    0.22
Q6    1   0.2767  0.8161  0.5950  11.00000  0.05    0.22
Q7    1   0.6501 -0.2875  0.8415  11.00000  0.05    0.22
Q8    1   0.3444  0.5602  0.6666  11.00000  0.05    0.21
;
_shelx_res_checksum              88670
_shelx_hkl_file
;
   0   0  -1 3574.63   52.49
   0   0  -1 3636.97   52.45
   0   0  -2    1.80    0.20
   0   0  -2    2.30    0.25
   0   0  -3 1042.14   15.16
   0   0  -3 1067.91   15.25
   0   0  -4   47.44    1.11
   0   0  -4   52.12    1.24
   0   0  -5    0.70    0.30
   0   0  -5    0.61    0.25
   0   0  -5    0.35    0.31
   0   0  -6   10.73    0.65
   0   0  -6   10.70    0.65
   0   0  -6   10.03    0.57
   0   0  -7    8.20    0.64
   0   0  -7    8.07    0.55
   0   0  -7    7.04    0.63
   0   0   8  133.46    3.43
   0   0  -8  135.41    3.01
   0   0  -8  131.35    2.87
   0   0  -8  137.55    3.06
   0   0  -9  652.94   10.73
   0   0   9  655.63   11.44
   0   0  -9  652.91   10.48
   0   0  -9  665.11   10.74
   0   0  -9  636.69   10.80
   0   0 -10  228.80    4.59
   0   0 -10  233.57    4.90
   0   0 -10  235.33    4.96
   0   0 -11    3.22    0.68
   0   0 -12  290.22    5.69
   0   0 -13  180.09    3.71
   0   1 -13   66.66    1.83
   0   1 -12   91.15    2.57
   0   1 -11   57.45    2.10
   0  -1  11   55.00    2.36
   0   1 -10    5.72    0.82
   0  -1  10    4.56    0.94
   0   1  -9  569.73    9.56
   0   1  -9  554.41    9.57
   0  -1   9  573.83   10.39
   0   1  -8   50.88    1.66
   0   1  -8   50.69    1.72
   0  -1   8   50.61    2.05
   0   1  -7  222.27    4.15
   0   1  -7  222.34    4.24
   0   1  -6  413.87    6.72
   0   1  -6  405.16    6.56
   0   1  -6  397.21    6.47
   0   1  -5  566.40    8.84
   0   1  -5  567.85    8.95
   0   1  -4 1702.72   23.99
   0  -1   4 1656.28   23.89
   0   1  -4 1699.07   23.93
   0  -1   3   27.32    0.47
   0  -1   3   17.07    0.69
   0   1  -3   18.58    0.67
   0   1  -3   33.79    0.82
   0   1  -3   27.51    0.71
   0  -1   2 1931.72   28.06
   0  -1   2 2002.46   27.92
   0  -1   2 2005.51   28.12
   0  -1   1   27.65    0.56
   0  -1   1   29.44    0.60
   0  -1   0 1879.21   26.50
   0   1   0 1891.85   26.55
   0   1   1  150.48    2.31
   0  -1  -1  148.42    2.23
   0  -1  -2    3.00    0.17
   0  -1  -2    2.98    0.20
   0  -1  -3 7286.00  104.34
   0  -1  -3 7359.36  104.19
   0  -1  -3 7574.53  104.36
   0  -1  -3 7553.13  104.32
   0  -1  -4   44.71    0.97
   0  -1  -4   43.37    1.18
   0  -1  -5  543.61    9.53
   0  -1  -5  720.82    9.76
   0  -1  -5  606.18    9.72
   0  -1  -5  678.06    9.32
   0  -1  -6  140.96    2.77
   0  -1  -6  142.26    2.92
   0  -1  -7   37.52    1.19
   0  -1  -7   36.96    1.29
   0  -1  -7   40.78    1.30
   0  -1  -8  390.09    6.56
   0  -1  -8  387.69    6.75
   0  -1  -8  386.63    6.64
   0  -1  -9  216.80    4.50
   0  -1  -9  219.01    4.61
   0  -1  -9  230.42    4.64
   0  -1  -9  231.46    4.42
   0  -1  -9  222.33    4.49
   0  -1 -10  178.84    3.83
   0  -1 -10  177.72    3.97
   0  -1 -10  174.53    3.98
   0  -1 -10  174.59    4.02
   0  -1 -11  123.79    3.09
   0  -1 -11  120.40    3.16
   0  -1 -12   35.68    1.51
   0  -1 -12   34.92    1.53
   0  -1 -13   62.15    1.84
   0   2 -13   32.88    1.09
   0   2 -12    0.58    0.48
   0  -2  11  178.89    4.55
   0   2 -11  185.33    4.17
   0  -2  10  128.94    3.84
   0   2 -10  128.49    3.39
   0  -2   9  342.69    7.22
   0  -2   8  107.14    3.23
   0   2  -8  101.32    2.62
   0   2  -8  100.88    2.71
   0   2  -7  371.74    6.45
   0   2  -7  389.72    6.73
   0  -2   7  372.18    7.23
   0   2  -7  373.93    6.88
   0   2  -6   93.13    2.32
   0   2  -6   91.99    2.14
   0  -2   5    0.89    0.30
   0   2  -5    3.70    0.42
   0   2  -5    3.45    0.48
   0   2  -5    1.09    0.36
   0   2  -4  545.63    8.49
   0  -2   4  536.73    8.56
   0   2  -4  572.69    8.54
   0   2  -4  568.40    8.67
   0   2  -3  483.14    7.09
   0  -2   3  461.58    7.02
   0  -2   3  473.34    7.18
   0  -2   2   36.57    0.84
   0  -2   2   37.95    0.95
   0  -2   1 1711.10   24.34
   0  -2   1 1712.07   24.29
   0  -2   0 3364.98   47.25
   0   2   0 3381.92   47.29
   0   2   0 3321.18   47.39
   0  -2   0 3346.17   47.22
   0  -2  -1   68.57    1.24
   0  -2  -1   64.56    1.20
   0  -2  -2    3.86    0.25
   0   2   2    4.65    0.33
   0   2   3 6959.78   97.13
   0  -2  -3 6903.21   96.92
   0  -2  -3 6869.96   96.90
   0  -2  -4 3223.31   45.78
   0  -2  -4 3277.61   45.96
   0  -2  -5 3147.74   44.95
   0  -2  -5 3128.91   45.32
   0  -2  -6 2397.67   36.07
   0  -2  -6 2608.72   36.07
   0  -2  -7   90.24    2.36
   0  -2  -7  112.88    2.44
   0  -2  -8   81.93    2.16
   0  -2  -9   75.42    2.19
   0  -2  -9   75.98    2.34
   0  -2  -9   81.14    2.19
   0  -2 -10  243.05    5.24
   0  -2 -10  257.24    5.06
   0  -2 -11   36.06    1.58
   0  -2 -12   93.79    2.67
   0  -2 -13   60.54    1.96
   0  -2 -14   55.15    1.62
   0  -2 -14   58.47    1.71
   0   3 -12   55.57    1.65
   0   3 -11    6.39    0.76
   0  -3  11    6.34    0.88
   0   3 -10   39.13    1.72
   0  -3  10   36.53    1.94
   0  -3   9  457.99    8.98
   0  -3   8   74.49    2.72
   0   3  -8   70.71    2.12
   0   3  -8   66.27    2.13
   0   3  -8   69.67    2.20
   0   3  -7   30.75    1.38
   0   3  -7   28.00    1.46
   0   3  -7   30.63    1.25
   0   3  -7   27.65    1.33
   0  -3   7   32.61    1.75
   0  -3   6  120.87    3.31
   0   3  -6  112.03    2.56
   0   3  -6  119.73    2.99
   0   3  -6  121.54    2.92
   0   3  -6  116.98    2.86
   0   3  -5    7.00    0.58
   0   3  -5    7.20    0.68
   0   3  -5    6.67    0.55
   0  -3   4  569.97    9.05
   0  -3   4  564.96    9.24
   0   3  -4  574.51    8.90
   0   3  -3  384.09    6.21
   0  -3   3  385.70    6.43
   0  -3   2   76.77    1.56
   0  -3   2   75.80    1.73
   0   3  -1 1736.92   25.01
   0  -3   1 1737.27   24.74
   0  -3   1 1722.19   24.89
   0  -3   0  605.83    8.92
   0   3   0  596.32    9.09
   0   3   0  597.41    8.96
   0  -3  -1 1279.49   18.41
   0   3   1 1283.73   18.54
   0  -3  -2  101.65    1.90
   0  -3  -2  101.15    1.84
   0  -3  -3   26.06    0.73
   0   3   3   27.22    0.86
   0   3   4 1275.59   18.89
   0  -3  -4 1294.25   18.54
   0   3   5   56.30    1.63
   0  -3  -5   55.47    1.24
   0   3   6 1003.14   15.61
   0  -3  -7   79.85    2.08
   0   3   7   77.29    2.43
   0   3   8    0.69    0.44
   0   3   9    1.63    0.62
   0  -3  -9    0.96    0.53
   0   3   9    1.49    0.74
   0  -3  -9    1.34    0.52
   0   3  10    3.92    0.79
   0  -3 -10    3.49    0.66
   0   3  10    4.21    0.98
   0  -3 -10    3.36    0.51
   0  -3 -11  246.95    5.09
   0  -3 -12   31.55    1.52
   0  -3 -13  185.07    4.02
   0  -3 -13  173.44    3.91
   0  -3 -14   12.13    0.79
   0  -3 -14   12.12    0.85
   0   3  14   11.93    1.10
   0   3  15    3.86    0.62
   0   4 -11  212.29    4.16
   0  -4  11  212.40    4.54
   0  -4  10  338.34    6.94
   0   4 -10  341.48    6.36
   0  -4   9   24.59    1.63
   0  -4   8   45.10    2.18
   0   4  -8   48.40    1.79
   0   4  -7    4.51    0.83
   0   4  -7    4.52    0.70
   0   4  -7    4.28    0.81
   0   4  -7    4.26    0.77
   0  -4   7    4.87    0.96
   0   4  -6   10.29    0.99
   0   4  -6   10.53    0.91
   0   4  -6   11.25    0.95
   0   4  -6   15.33    1.16
   0  -4   6   14.16    1.30
   0   4  -5   29.98    1.11
   0  -4   5   29.74    1.50
   0  -4   5   35.27    1.78
   0   4  -5   33.68    1.42
   0   4  -5   32.41    1.42
   0   4  -5   28.60    1.42
   0  -4   4   41.22    1.58
   0   4  -4   43.27    1.27
   0  -4   3  734.80   11.39
   0  -4   3  739.37   11.83
   0  -4   2   57.08    1.65
   0  -4   2   61.16    1.44
   0  -4   1  697.85   10.47
   0  -4   1  668.41   10.20
   0  -4   0    7.06    0.49
   0   4   0    6.04    0.52
   0   4   1  267.77    4.59
   0   4   1  260.28    4.45
   0  -4  -1  265.56    4.33
   0  -4  -2 1857.76   27.01
   0  -4  -2 1910.34   27.08
   0  -4  -3  353.35    5.59
   0  -4  -3  333.79    5.44
   0  -4  -4  441.80    7.23
   0  -4  -4  479.84    7.19
   0  -4  -5    1.70    0.31
   0   4   5    1.21    0.36
   0  -4  -6 1132.50   16.69
   0   4   6 1067.56   17.42
   0   4   7  101.28    2.95
   0  -4  -7  121.01    2.82
   0   4   8   84.05    2.78
   0  -4  -8   89.09    2.45
   0  -4  -8   90.52    2.48
   0   4   9    5.16    0.94
   0  -4  -9    5.31    0.67
   0   4   9    5.71    0.86
   0  -4 -10   21.05    1.15
   0   4  10   23.12    1.60
   0   4  10   23.40    1.75
   0   4  11   44.79    2.35
   0  -4 -11   43.89    1.83
   0  -4 -12   71.58    2.34
   0   4  12   79.48    3.05
   0  -4 -12   77.88    2.46
   0   4  13  215.38    5.28
   0  -4 -13  221.48    4.57
   0  -4 -14   24.99    1.21
   0   4  14   26.82    1.55
   0   4  15   45.60    1.69
   0  -5  10   11.08    1.02
   0   5  -9   88.20    2.48
   0  -5   9   82.37    2.84
   0   5  -8   24.41    1.27
   0  -5   8   25.90    1.70
   0  -5   7  184.42    4.76
   0   5  -7  184.44    4.38
   0   5  -7  183.17    4.14
   0   5  -6  473.72    8.27
   0   5  -6  454.79    8.48
   0   5  -6  438.61    8.21
   0  -5   6  458.49    8.93
   0   5  -5  278.82    5.60
   0   5  -5  278.25    5.55
   0   5  -4    9.23    0.83
   0  -5   4   10.67    1.18
   0  -5   4    8.94    0.91
   0   5  -4    8.77    0.80
   0   5  -4    9.84    0.90
   0   5  -3   21.44    1.10
   0  -5   3   20.10    1.18
   0  -5   2   20.81    1.09
   0  -5   1  305.04    5.15
   0  -5   1  311.47    5.49
   0  -5   0 4258.27   62.09
   0  -5   0 4442.74   61.92
   0   5   0 4357.13   62.31
   0   5   1 4904.21   69.82
   0   5   1 4896.68   69.58
   0  -5  -2  646.41   10.25
   0  -5  -2  671.41   10.27
   0  -5  -3  211.51    3.81
   0  -5  -3  212.74    3.88
   0  -5  -4  645.60   10.05
   0  -5  -4  661.68   10.20
   0  -5  -5  289.96    4.97
   0  -5  -5  290.55    5.16
   0  -5  -6  182.58    3.43
   0  -5  -7   62.48    1.97
   0   5   8  325.53    7.25
   0  -5  -8  362.33    6.65
   0  -5  -8  354.24    6.51
   0   5   8  333.69    6.97
   0  -5  -8  363.12    6.62
   0   5   9    4.40    0.94
   0  -5  -9    4.56    0.78
   0  -5  -9    4.43    0.67
   0   5   9    3.66    0.74
   0  -5  -9    4.42    0.64
   0   5  10    4.16    1.05
   0  -5 -10    3.81    0.63
   0  -5 -10    3.21    0.69
   0   5  10    3.38    0.81
   0  -5 -10    3.34    0.78
   0  -5 -11    3.22    0.75
   0  -5 -11    2.21    0.61
   0   5  11    3.18    1.00
   0   5  12   48.07    2.42
   0  -5 -12   41.51    1.73
   0  -5 -13   98.57    2.62
   0  -5 -13   96.74    2.74
   0   5  14   10.56    1.05
   0  -5 -14    9.42    0.85
   0   5  15   43.62    1.61
   0   5  15   37.91    1.28
   0  -6   9   12.43    1.06
   0   6  -9   11.49    0.80
   0  -6   8    1.54    0.78
   0   6  -8    2.13    0.60
   0   6  -7    2.90    0.77
   0  -6   7    3.14    0.85
   0   6  -7    2.85    0.68
   0   6  -6   71.02    2.37
   0   6  -6   77.02    2.61
   0   6  -5  126.87    3.47
   0  -6   5  119.46    3.49
   0  -6   4  546.15   10.33
   0   6  -4  559.09    9.49
   0  -6   4  510.85    9.64
   0   6  -4  517.17    9.26
   0  -6   3 1369.35   20.67
   0  -6   3 1247.39   20.71
   0   6  -3 1379.90   20.50
   0   6  -3 1399.75   20.66
   0  -6   3 1213.46   21.56
   0  -6   2  209.86    4.62
   0   6  -2  226.21    4.58
   0   6  -2  217.77    4.52
   0   6  -1  516.41    8.56
   0  -6   1  524.15    8.77
   0  -6   0  606.47   10.00
   0  -6   0  602.51    9.66
   0   6   0  627.28   10.20
   0   6   1    0.45    0.40
   0  -6  -1    1.73    0.46
   0   6   2   24.64    1.18
   0  -6  -2   24.96    1.08
   0  -6  -2   27.28    1.08
   0   6   2   24.79    1.06
   0   6   3 1624.74   24.14
   0  -6  -3 1580.29   23.88
   0  -6  -3 1667.06   23.95
   0  -6  -4  437.45    7.19
   0   6   4  428.99    7.44
   0  -6  -5    1.20    0.40
   0  -6  -5    2.14    0.46
   0  -6  -6  397.46    6.74
   0  -6  -6  406.81    7.04
   0  -6  -7   22.45    1.11
   0  -6  -7   22.31    1.14
   0   6   7   20.01    1.36
   0  -6  -8    2.52    0.57
   0  -6  -8    0.38    0.52
   0   6   8    0.55    0.61
   0  -6  -8    2.01    0.49
   0  -6  -9   23.37    1.40
   0   6   9   20.69    1.64
   0  -6  -9   22.34    1.40
   0  -6  -9   21.20    1.27
   0  -6 -10    3.04    0.66
   0   6  10    3.09    1.04
   0  -6 -10    1.66    0.59
   0  -6 -10    3.13    0.83
   0   6  11   93.83    3.61
   0  -6 -11   88.16    2.77
   0  -6 -12   18.61    1.26
   0   6  12   21.29    1.67
   0  -6 -13    1.67    0.61
   0   6  13    1.82    0.78
   0   6  14   22.51    1.20
   0   6  14   24.11    1.40
   0   6  15    4.18    0.47
   0   6  15    4.68    0.63
   0   7  -8   44.46    1.43
   0  -7   8   45.77    1.79
   0  -7   7   36.73    1.67
   0   7  -7   34.17    1.39
   0   7  -6    1.77    0.70
   0   7  -6    1.99    0.68
   0   7  -5   77.10    2.49
   0  -7   5   76.44    2.56
   0   7  -5   78.48    2.68
   0  -7   5   75.53    2.85
   0  -7   4   17.63    1.53
   0  -7   4   17.87    1.39
   0   7  -4   18.89    1.32
   0  -7   3    8.67    1.27
   0  -7   3    8.68    0.99
   0   7  -3    9.94    0.97
   0   7  -3    9.22    1.03
   0  -7   2   47.73    2.52
   0  -7   2   48.10    2.16
   0   7  -2   55.16    1.99
   0   7  -1    4.07    0.72
   0   7  -1    4.14    0.65
   0  -7   1    3.70    0.80
   0   7   0   50.09    1.79
   0   7   0   47.11    1.76
   0  -7   0   48.61    1.92
   0   7   1  343.11    6.35
   0  -7  -1  368.45    6.27
   0  -7  -1  335.84    6.19
   0   7   1  365.57    6.73
   0  -7  -1  361.58    6.64
   0   7   1  343.53    6.55
   0  -7  -2    0.67    0.32
   0   7   2    0.52    0.41
   0   7   2    0.79    0.45
   0  -7  -3  433.74    7.39
   0   7   3  419.17    7.35
   0   7   3  429.93    7.72
   0  -7  -3  412.49    7.18
   0   7   3  411.87    7.67
   0  -7  -4   42.03    1.52
   0  -7  -4   40.94    1.54
   0   7   4   39.77    1.59
   0   7   4   39.45    1.71
   0   7   4   41.85    1.72
   0   7   5  300.81    5.92
   0   7   5  284.03    6.03
   0  -7  -5  294.52    5.54
   0  -7  -5  301.17    5.58
   0  -7  -5  282.06    5.34
   0   7   5  300.86    5.98
   0  -7  -6  118.34    2.94
   0   7   6  117.31    3.32
   0   7   6  123.32    3.49
   0   7   7  136.97    3.90
   0  -7  -7  142.88    3.51
   0   7   8  154.33    4.34
   0  -7  -9  211.13    4.79
   0   7   9  200.82    5.36
   0   7   9  207.03    5.51
   0   7  10  237.36    6.03
   0   7  10  227.03    6.06
   0  -7 -10  219.00    5.12
   0   7  11   36.54    2.12
   0   7  11   36.02    2.25
   0  -7 -11   31.97    1.71
   0   7  12   14.26    1.44
   0   7  12   11.92    1.22
   0   7  13   20.22    1.44
   0   7  13   18.33    1.25
   0   7  14   51.28    1.77
   0   7  14   53.44    1.97
   0   7  15    6.85    0.62
   0   8  -7   11.51    0.67
   0  -8   6    1.25    0.64
   0   8  -6    0.24    0.50
   0   8  -6    0.54    0.50
   0  -8   5   33.42    1.75
   0   8  -5   32.91    1.61
   0   8  -5   32.45    1.49
   0  -8   4   25.95    1.67
   0  -8   4   25.00    1.47
   0   8  -4   23.29    1.39
   0   8  -4   28.94    1.55
   0   8  -3  115.83    3.20
   0  -8   3  110.09    3.61
   0   8  -2   70.44    2.35
   0  -8   2   70.70    2.47
   0  -8   2   70.25    2.98
   0  -8   1  398.25    8.80
   0  -8   1  409.84    8.31
   0   8  -1  444.07    8.03
   0   8  -1  440.42    7.85
   0   8   0  266.82    5.43
   0  -8   0  262.29    5.87
   0   8   0  276.71    5.58
   0   8   1    0.63    0.52
   0   8   1    1.03    0.58
   0   8   2   26.48    1.41
   0   8   2   26.67    1.33
   0   8   2   30.83    1.55
   0  -8  -2   27.16    1.23
   0  -8  -3   61.54    2.19
   0   8   3   61.06    2.24
   0   8   3   63.47    2.26
   0  -8  -3   61.58    1.91
   0   8   4   23.17    1.37
   0  -8  -4   20.50    1.29
   0   8   4   18.94    1.28
   0  -8  -4   20.19    1.06
   0   8   5    7.49    0.92
   0  -8  -5    6.71    0.72
   0  -8  -5    7.18    0.84
   0   8   5    7.07    0.77
   0  -8  -5    6.19    0.65
   0   8   5    6.73    0.86
   0  -8  -6  119.08    3.24
   0  -8  -6  125.69    3.02
   0   8   6  121.29    3.44
   0   8   6  128.24    3.66
   0  -8  -6  132.66    3.30
   0   8   6  125.24    3.52
   0  -8  -7   27.38    1.41
   0   8   7   26.51    1.57
   0  -8  -7   26.17    1.25
   0   8   7   26.14    1.61
   0   8   7   27.45    1.59
   0   8   8  225.51    5.50
   0   8   8  207.92    5.34
   0   8   9   95.69    3.42
   0   8  10  197.91    5.35
   0   8  10  196.71    5.36
   0   8  11   46.92    2.45
   0   8  11   52.32    2.49
   0   8  12  193.95    5.11
   0   8  12  199.49    4.94
   0   8  13    0.58    0.51
   0   8  13    0.71    0.61
   0   8  14   26.74    1.26
   0   8  14   24.81    1.12
   0  -9   6   15.19    0.89
   0  -9   5   51.30    1.85
   0   9  -5   45.16    1.48
   0   9  -5   48.75    1.58
   0   9  -4   17.62    1.08
   0  -9   4   20.10    1.30
   0   9  -4   20.91    1.18
   0  -9   3   26.50    1.43
   0   9  -3   27.24    1.45
   0  -9   3   27.21    1.63
   0   9  -2  363.17    6.98
   0  -9   2  346.18    7.02
   0   9  -1   71.78    2.33
   0  -9   1   70.14    2.88
   0   9  -1   69.76    2.45
   0   9   0   78.40    2.58
   0   9   0   76.40    2.41
   0   9   1  350.06    6.71
   0   9   1  352.67    6.81
   0   9   2  216.95    4.71
   0   9   2  203.26    4.55
   0   9   3  118.03    3.37
   0   9   3  108.41    2.99
   0   9   3  116.26    3.25
   0  -9  -3  116.59    2.89
   0  -9  -3  113.96    3.40
   0  -9  -4   24.16    1.18
   0   9   4   26.82    1.51
   0   9   4   21.00    1.21
   0   9   4   24.56    1.48
   0  -9  -4   22.62    1.46
   0   9   5    1.58    0.63
   0   9   5    1.94    0.63
   0  -9  -5    1.86    0.71
   0  -9  -5    1.92    0.47
   0   9   6    5.38    0.88
   0  -9  -6    4.95    0.62
   0   9   7  103.20    3.28
   0   9   8  100.07    3.28
   0   9   8   98.15    3.20
   0   9   9   26.22    1.70
   0   9  10   72.97    2.89
   0   9  11   47.12    2.28
   0   9  11   51.62    2.34
   0   9  12    0.61    0.60
   0   9  12    0.60    0.64
   0   9  13  162.85    3.70
   0   9  13  163.75    3.81
   0   9  14  181.64    3.61
   0  10  -4   13.26    0.74
   0 -10   4   13.36    0.85
   0  10  -4   12.13    0.72
   0 -10   3  100.83    2.69
   0  10  -3   95.28    2.45
   0 -10   2    9.24    0.95
   0  10  -2   10.30    0.86
   0 -10   1  105.25    2.94
   0  10  -1  110.72    2.92
   0 -10   1  111.43    3.19
   0  10   0   16.96    1.10
   0  10   0   15.44    1.15
   0 -10   0   17.84    1.37
   0  10   1    2.94    0.66
   0  10   1    2.02    0.69
   0  10   2    5.49    0.78
   0  10   2    6.07    0.78
   0  10   3    1.14    0.58
   0  10   3    2.19    0.63
   0  10   4   62.51    2.17
   0  10   4   73.25    2.44
   0 -10  -5  168.36    3.57
   0  10   5  173.92    4.18
   0  10   6  184.88    4.50
   0  10   7  257.96    5.69
   0  10   8    5.24    0.89
   0  10   9  208.77    5.02
   0  10  10  125.40    3.61
   0  10  11   67.04    2.42
   0  10  12    7.18    0.81
   0  10  13    7.33    0.66
   0  11  -2  804.37   11.80
   0  11  -2  737.78   11.67
   0  11  -1   55.25    1.64
   0  11  -1   47.14    1.56
   0 -11   0  248.68    5.00
   0  11   0  279.22    5.04
   0  11   1  231.13    4.55
   0 -11  -1  221.21    4.54
   0  11   2   13.56    1.00
   0  11   2   14.85    0.98
   0  11   3  157.74    3.74
   0  11   3  190.76    3.99
   0  11   4   27.11    1.34
   0  11   4   24.00    1.27
   0  11   5   22.15    1.25
   0  11   6    5.12    0.75
   0  11   7    0.37    0.53
   0  11   8    1.58    0.58
   0  11   9    1.70    0.60
   0  11  10   25.64    1.34
   0  11  11    6.93    0.74
   0  11  12  199.95    3.89
   0  12   1  197.13    3.38
   0  12   1  153.09    3.15
   0  12   2   39.15    1.29
   0 -12  -2   32.02    1.21
   0  12   3   60.04    1.71
   0  12   4   25.79    1.08
   0  12   5   11.19    0.76
   0  12   6    0.28    0.40
   0  12   7   35.85    1.34
   0  12   8    1.32    0.45
   0  12   9   26.57    1.12
   0  12  10    2.14    0.42
  -1  12   8  209.00    3.82
  -1  12   7   27.14    1.02
  -1  12   6   25.00    0.99
  -1  12   5    0.34    0.33
  -1  12   4    1.71    0.38
  -1  12   3   24.70    0.94
  -1  11  11   14.55    0.81
  -1  11  10   77.31    2.18
  -1  11   9    0.32    0.47
  -1  11   8   88.45    2.47
  -1  11   7   90.17    2.43
  -1  11   7   75.35    2.18
  -1  11   6    3.92    0.61
  -1  11   5  195.23    4.09
  -1  11   4    8.65    0.77
  -1  11   3   23.95    1.14
  -1  11   2   17.56    0.99
  -1  11   1    4.21    0.59
  -1  11   1    4.61    0.61
  -1  11   0    7.30    0.64
  -1  11   0    8.25    0.67
  -1  11  -1    4.35    0.50
  -1  11  -1    4.64    0.50
  -1  10  12  168.67    3.63
  -1  10  11   68.50    2.26
  -1  10  10   33.37    1.64
  -1  10   9    7.18    0.88
  -1  10   8   35.03    1.69
  -1  10   7  223.22    4.96
  -1  10   6  216.06    4.85
  -1  10   5   25.27    1.36
  -1  10   5   29.14    1.50
  -1  10   4  480.57    8.58
  -1  10   3   36.10    1.57
  -1  10   3   31.16    1.51
  -1  10   2   42.88    1.78
  -1  10   2   55.64    1.89
   1 -10  -1    1.77    0.85
  -1  10   1    1.32    0.53
   1 -10   0    3.37    0.87
  -1  10   0    3.17    0.62
  -1  10  -1   34.96    1.42
   1 -10   1   33.59    1.65
  -1  10  -2   32.01    1.31
  -1  10  -2   32.33    1.34
   1 -10   2   33.40    1.51
  -1  10  -3   19.52    0.92
  -1  10  -3   18.72    0.91
  -1   9  13    1.69    0.50
  -1   9  12    0.62    0.53
  -1   9  11    5.85    0.91
  -1   9  11    5.09    0.86
  -1   9  10   94.52    3.16
  -1   9  10   94.62    3.15
  -1   9   9   56.71    2.38
  -1   9   9   57.78    2.39
  -1   9   8    7.13    0.98
  -1   9   7  139.59    3.86
  -1   9   6    2.35    0.72
  -1   9   5  175.72    4.38
  -1   9   4  100.92    3.02
  -1   9   3  247.96    5.16
  -1   9   3  221.54    4.91
  -1   9   2   67.87    2.28
  -1   9   2   67.54    2.30
  -1   9   1   86.93    2.57
  -1   9   1   82.50    2.61
  -1   9   0  148.61    3.52
  -1   9   0  135.99    3.61
   1  -9   1    0.04    0.86
  -1   9  -1    0.71    0.55
  -1   9  -2  283.77    5.61
   1  -9   2  295.65    6.37
  -1   9  -3  174.98    3.82
   1  -9   3  177.75    4.32
  -1   9  -4    7.99    0.75
   1  -9   4    9.33    0.95
  -1   9  -5  307.24    5.35
   1  -9   5  328.99    5.80
  -1   8  14    1.04    0.38
  -1   8  14    1.34    0.43
  -1   8  13   50.36    1.87
  -1   8  13   44.71    1.83
  -1   8  12   47.39    2.13
  -1   8  11    0.85    0.77
  -1   8  10    3.47    0.88
  -1   8  10    3.88    0.92
  -1   8   9    3.34    0.85
  -1   8   9    3.15    0.83
  -1   8   8  256.34    5.98
  -1   8   8  266.10    6.01
   1  -8  -7 1260.62   20.67
   1  -8  -7 1387.39   20.89
  -1   8   7 1304.42   21.39
  -1   8   7 1382.73   21.40
  -1   8   7 1403.96   21.58
  -1   8   6 1394.85   21.39
   1  -8  -6 1368.12   20.68
  -1   8   6 1290.48   21.31
   1  -8  -6 1315.05   20.82
  -1   8   6 1393.43   21.24
  -1   8   6 1275.16   21.05
  -1   8   5  214.55    4.91
   1  -8  -5  209.55    4.42
  -1   8   5  201.04    4.72
  -1   8   5  205.40    4.97
   1  -8  -5  199.06    4.55
  -1   8   4  304.27    6.42
  -1   8   4  310.00    6.32
   1  -8  -4  299.13    6.02
  -1   8   3   49.27    2.07
  -1   8   3   47.06    1.81
  -1   8   3   49.38    1.97
   1  -8  -2   71.76    2.43
  -1   8   2   72.91    2.54
  -1   8   2   67.28    2.25
  -1   8   2   71.23    2.37
  -1   8   1  969.11   15.76
  -1   8   1 1005.70   15.88
   1  -8  -1 1004.56   16.18
   1  -8   0   84.95    2.83
  -1   8   0   85.82    2.58
  -1   8   0   86.03    2.68
  -1   8  -1    5.17    0.90
  -1   8  -1    3.09    0.65
  -1   8  -2    7.67    0.89
   1  -8   2    7.36    1.31
  -1   8  -3  214.12    4.74
   1  -8   3  223.48    5.56
  -1   8  -4  453.80    8.30
   1  -8   4  481.26    8.96
  -1   8  -5    8.21    0.83
   1  -8   5    7.78    1.01
  -1   8  -5    7.65    0.82
  -1   8  -6  247.36    4.57
   1  -8   7    5.97    0.63
  -1   7  14    3.49    0.61
  -1   7  14    3.23    0.54
  -1   7  13    1.52    0.64
  -1   7  13    1.27    0.58
  -1   7  12   34.95    1.97
  -1   7  12   34.36    1.90
   1  -7 -11  200.46    4.69
  -1   7  11  223.08    5.73
   1  -7 -10   82.70    2.74
  -1   7  10   91.53    3.44
  -1   7   9    9.02    1.15
   1  -7  -9    9.07    1.00
  -1   7   9    7.94    1.09
   1  -7  -9    8.21    0.92
  -1   7   8  486.12    9.65
  -1   7   8  466.79    9.40
  -1   7   7  376.39    7.57
   1  -7  -7  409.50    7.29
  -1   7   7  396.50    7.78
   1  -7  -7  371.72    6.87
  -1   7   7  365.67    7.60
  -1   7   6    5.56    0.78
   1  -7  -6    5.52    0.69
  -1   7   6    6.41    0.80
   1  -7  -6    6.20    0.69
  -1   7   6    5.97    0.82
   1  -7  -5  163.95    3.70
  -1   7   5  165.58    4.00
  -1   7   5  167.02    4.06
   1  -7  -5  164.09    3.66
  -1   7   5  158.05    4.02
  -1   7   4    0.22    0.40
  -1   7   4   -0.01    0.46
  -1   7   4    0.56    0.45
   1  -7  -4    1.86    0.49
   1  -7  -4    0.22    0.34
  -1   7   4    0.47    0.49
  -1   7   3  140.76    3.31
   1  -7  -3  159.25    3.38
  -1   7   3  154.07    3.80
   1  -7  -3  145.64    3.39
  -1   7   3  148.36    3.64
  -1   7   2   38.13    1.67
  -1   7   2   32.86    1.40
   1  -7  -2   33.03    1.45
  -1   7   2   34.41    1.51
   1  -7  -1   22.05    1.24
  -1   7   1   18.97    1.13
  -1   7   1   22.95    1.33
  -1   7   1   22.77    1.20
  -1   7   0   36.37    1.58
  -1   7   0   35.57    1.53
   1  -7   0   34.30    1.59
   1  -7   1    7.06    0.89
  -1   7  -1    8.06    0.81
  -1   7  -1    8.04    0.90
  -1   7  -2    5.49    0.87
  -1   7  -2    4.17    0.73
  -1   7  -3  265.46    5.39
   1  -7   3  228.21    6.20
  -1   7  -4    6.10    0.88
   1  -7   4    5.63    1.11
  -1   7  -4    5.12    0.80
  -1   7  -4    6.21    0.95
  -1   7  -5  300.72    6.08
  -1   7  -5  315.69    6.25
   1  -7   6    1.18    0.79
  -1   7  -6    1.08    0.59
  -1   7  -6    1.10    0.61
  -1   7  -6    1.06    0.51
  -1   7  -7  342.04    6.09
  -1   7  -7  338.70    6.01
  -1   7  -8  160.52    3.13
   1  -7   8  181.90    3.72
  -1   6  15   11.11    0.74
  -1   6  15    9.99    0.65
  -1   6  14   34.07    1.46
  -1   6  14   35.48    1.60
  -1   6  13   10.33    1.09
   1  -6 -13    7.90    0.81
  -1   6  12    0.85    0.73
   1  -6 -12    0.67    0.60
  -1   6  11  159.91    4.80
   1  -6 -11  152.01    3.86
   1  -6 -10  312.20    6.38
  -1   6  10  307.82    7.37
   1  -6  -9  276.23    5.84
  -1   6   9  290.54    6.76
   1  -6  -8  392.73    7.13
   1  -6  -8  389.96    7.35
  -1   6   7  334.65    6.97
   1  -6  -7  321.26    5.93
   1  -6  -6  161.07    3.54
   1  -6  -6  153.37    3.35
  -1   6   6  149.04    3.77
  -1   6   6  155.84    3.97
   1  -6  -5   32.54    1.28
  -1   6   5   30.15    1.44
  -1   6   5   31.15    1.48
   1  -6  -5   32.37    1.29
  -1   6   5   30.89    1.53
   1  -6  -4  244.07    4.64
   1  -6  -4  244.62    4.63
  -1   6   4  249.25    5.03
   1  -6  -3   41.28    1.42
  -1   6   3   38.10    1.61
   1  -6  -3   41.47    1.37
  -1   6   3   42.41    1.56
   1  -6  -2  475.06    7.66
  -1   6   2  452.52    8.15
   1  -6  -1 1101.01   16.98
  -1   6   1 1139.03   17.45
   1  -6   0   57.33    1.84
  -1   6   0   50.86    1.73
  -1   6   0   55.21    1.79
   1  -6   1  150.45    3.47
  -1   6  -1  155.02    3.52
  -1   6  -1  145.53    3.36
   1  -6   2  312.67    6.17
  -1   6  -2  325.27    6.09
  -1   6  -3   78.43    2.38
  -1   6  -3   72.25    2.29
  -1   6  -4   33.87    1.61
  -1   6  -4   33.39    1.63
  -1   6  -5  340.48    6.68
  -1   6  -5  352.00    6.80
  -1   6  -6  221.48    4.86
  -1   6  -6  217.27    4.74
   1  -6   6  211.22    5.27
  -1   6  -7   15.76    1.05
  -1   6  -7   14.20    1.04
   1  -6   7   15.72    1.33
  -1   6  -7   14.95    1.10
   1  -6   8  123.49    3.38
  -1   6  -8  119.53    2.88
  -1   6  -9  137.98    2.98
   1  -6   9  146.25    3.43
  -1   5  15   86.42    2.15
  -1   5  15   90.92    2.35
  -1   5  14   75.53    2.49
   1  -5 -13    0.18    0.53
  -1   5  13    0.24    0.66
  -1   5  12    8.83    1.20
   1  -5 -12    9.44    0.92
   1  -5 -11   72.25    2.42
  -1   5  11   73.79    3.11
   1  -5 -10   29.60    1.50
   1  -5 -10   30.02    1.54
  -1   5  10   30.13    2.03
  -1   5   9  502.70   10.16
   1  -5  -9  524.56    9.36
   1  -5  -9  527.15    9.25
   1  -5  -8  803.46   12.98
  -1   5   8  784.39   13.86
  -1   5   7    0.90    0.53
   1  -5  -7    0.39    0.29
   1  -5  -7    0.47    0.40
   1  -5  -6    8.60    0.62
   1  -5  -6   10.79    0.76
   1  -5  -5  101.13    2.39
   1  -5  -5  109.79    2.41
   1  -5  -4  271.78    4.83
   1  -5  -4  284.56    4.95
   1  -5  -3    1.83    0.35
   1  -5  -3    1.46    0.36
  -1   5   2   46.57    1.51
  -1   5   2   45.37    1.59
   1  -5  -2   48.98    1.35
  -1   5   1   21.44    1.07
   1  -5  -1   21.49    0.90
  -1   5   0    2.67    0.50
   1  -5   0    2.33    0.33
   1  -5   0    2.06    0.40
   1  -5   1    6.29    0.62
   1  -5   2  392.78    6.97
  -1   5  -2  421.83    7.18
   1  -5   3  109.61    2.85
  -1   5  -3  121.76    2.86
   1  -5   4    0.68    0.86
  -1   5  -4    0.63    0.52
  -1   5  -5  141.70    3.59
  -1   5  -5  143.17    3.61
  -1   5  -5  142.83    3.56
   1  -5   5  144.14    4.18
  -1   5  -5  143.84    3.64
  -1   5  -6  319.99    6.49
  -1   5  -6  313.60    6.26
   1  -5   6  318.34    6.97
   1  -5   7    4.41    0.98
  -1   5  -7    4.34    0.81
  -1   5  -7    5.06    0.82
  -1   5  -7    4.24    0.78
  -1   5  -8   15.88    1.07
   1  -5   8   17.08    1.37
  -1   5  -8   18.49    1.18
  -1   5  -9    3.78    0.66
   1  -5   9    3.35    0.81
  -1   5 -10  140.65    3.05
   1  -5  10  140.25    3.36
  -1   4  15   69.25    2.00
  -1   4  15   60.47    1.71
   1  -4 -14   18.28    1.04
  -1   4  14   20.02    1.31
   1  -4 -13    8.80    0.92
  -1   4  13   11.28    1.19
  -1   4  12    3.98    0.96
  -1   4  11    0.82    0.77
   1  -4 -11    0.68    0.63
  -1   4  10   14.95    1.48
   1  -4 -10   17.13    1.10
  -1   4  10   17.64    1.50
   1  -4 -10   16.43    1.12
  -1   4   9   38.62    2.11
  -1   4   9   41.15    2.13
   1  -4  -9   43.96    1.73
   1  -4  -9   43.10    1.68
  -1   4   8  135.30    3.89
  -1   4   8  133.45    3.86
   1  -4  -8  145.88    3.31
  -1   4   7  499.69    9.03
   1  -4  -6 1073.34   15.95
   1  -4  -5  137.76    2.75
   1  -4  -5  138.27    2.88
   1  -4  -4  437.46    7.03
   1  -4  -4  439.42    6.95
   1  -4  -3  152.40    2.87
   1  -4  -3  157.47    2.90
   1  -4  -2  626.42    9.69
  -1   4   2  667.88   10.10
  -1   4   1  243.02    4.31
   1  -4  -1  244.50    4.11
  -1   4   1  244.32    4.45
   1  -4  -1  237.74    4.01
  -1   4   0  134.07    2.85
   1  -4   0  128.51    2.54
   1  -4   1   61.30    1.55
   1  -4   1   59.80    1.35
   1  -4   2  110.81    2.42
   1  -4   3  315.50    5.55
  -1   4  -4  698.14   11.41
  -1   4  -4  726.16   11.44
  -1   4  -5  740.58   12.56
   1  -4   5  746.37   13.32
  -1   4  -5  742.55   12.33
  -1   4  -6  699.93   11.94
  -1   4  -6  701.39   11.76
   1  -4   6  719.59   12.46
  -1   4  -6  703.10   11.79
  -1   4  -6  712.48   11.79
  -1   4  -7    9.62    1.04
  -1   4  -7    8.68    0.96
   1  -4   7    8.98    1.13
  -1   4  -7    9.64    0.99
   1  -4   8  126.11    3.70
  -1   4  -8  125.86    3.28
  -1   4  -8  121.11    3.17
   1  -4   9  110.79    3.38
  -1   4  -9  119.65    3.13
   1  -4  10   26.09    1.49
  -1   4 -10   23.90    1.24
   1  -4  10   22.79    1.42
   1  -4  11   13.46    0.96
  -1   3  15    8.48    0.72
   1  -3 -14  164.09    3.52
  -1   3  14  174.56    4.18
  -1   3  13  148.90    4.10
   1  -3 -13  142.43    3.43
   1  -3 -12   39.80    1.72
  -1   3  12   40.95    2.11
  -1   3  11   33.28    1.97
   1  -3 -11   33.71    1.56
  -1   3  10  272.68    6.42
  -1   3  10  251.68    6.14
  -1   3   9    1.95    0.66
  -1   3   9    1.87    0.70
  -1   3   8  122.44    3.64
  -1   3   8  117.37    3.58
   1  -3  -8  132.27    2.97
   1  -3  -8  133.79    2.97
   1  -3  -7   35.81    1.29
  -1   3   7   34.95    1.66
  -1   3   6  353.13    6.58
   1  -3  -6  344.43    5.90
   1  -3  -5 4180.77   58.55
   1  -3  -5 4087.99   58.42
  -1   3   5 4122.48   59.12
   1  -3  -4  102.70    2.06
   1  -3  -3   29.27    0.87
   1  -3  -2  329.90    5.20
   1  -3  -2  334.08    5.19
  -1   3   1   30.26    0.96
   1  -3  -1   28.80    0.81
   1  -3  -1   30.51    0.80
  -1   3   0  277.49    4.30
   1  -3   0  303.06    4.51
  -1   3   0  279.99    4.83
   1  -3   0  299.80    4.61
   1  -3   1  591.80    8.82
   1  -3   1  584.30    8.97
   1  -3   2 3219.63   45.81
   1  -3   2 3158.63   45.54
  -1   3  -2 3321.77   45.74
  -1   3  -3   23.09    0.83
   1  -3   3   19.69    0.82
  -1   3  -4  136.04    2.97
  -1   3  -4  139.08    2.73
  -1   3  -5  374.20    6.57
  -1   3  -5  354.76    6.36
  -1   3  -5  372.56    6.14
  -1   3  -5  352.34    6.49
  -1   3  -6   73.80    2.34
  -1   3  -6   71.31    2.10
  -1   3  -6   74.13    2.26
  -1   3  -6   80.32    2.32
  -1   3  -6   74.56    2.00
  -1   3  -6   76.92    2.36
   1  -3   6   71.78    2.55
  -1   3  -7  232.32    5.02
   1  -3   7  236.05    5.36
  -1   3  -7  233.13    5.01
  -1   3  -7  236.63    4.95
  -1   3  -7  248.14    4.97
  -1   3  -8   25.23    1.35
  -1   3  -8   25.14    1.49
   1  -3   8   24.95    1.59
   1  -3   9  537.36    9.98
   1  -3  10  161.07    4.25
   1  -3  10  181.01    4.55
   1  -3  11  103.30    3.02
  -1   3 -11  102.12    2.69
   1  -3  12   32.71    1.37
  -1   3 -12   29.79    1.13
   1  -2 -14    1.91    0.49
  -1   2  14    2.23    0.67
   1  -2 -13    4.01    0.69
  -1   2  13    4.49    0.89
   1  -2 -12  120.32    3.11
  -1   2  12  120.28    3.76
  -1   2  11  337.53    7.46
   1  -2 -11  355.49    6.58
  -1   2  10  264.02    6.26
   1  -2 -10  258.25    5.21
  -1   2  10  270.18    6.19
   1  -2 -10  277.95    5.26
   1  -2  -9  288.78    5.42
  -1   2   9  286.46    6.34
  -1   2   9  306.96    6.56
   1  -2  -9  291.12    5.40
  -1   2   8   54.97    2.23
  -1   2   8   61.30    2.38
   1  -2  -8   59.19    1.72
   1  -2  -8   61.57    1.75
   1  -2  -7  914.15   13.70
  -1   2   7  880.08   14.79
   1  -2  -6  207.23    3.68
   1  -2  -6  205.83    3.48
  -1   2   5  568.57    9.13
   1  -2  -5  563.80    8.43
   1  -2  -4  732.90   10.71
  -1   2   4  742.31   11.13
   1  -2  -3  383.52    5.85
   1  -2  -3  394.98    6.04
   1  -2  -2 1994.44   28.34
  -1   2   1   56.05    1.34
   1  -2  -1   56.03    1.11
  -1   2   0   92.32    1.46
   1  -2   0   96.26    1.61
  -1   2   0   99.28    1.86
   1  -2   0  102.45    1.71
   1  -2   1  433.19    6.17
   1  -2   1  439.29    6.32
   1  -2   2  892.46   12.99
  -1   2  -2  930.88   13.19
   1  -2   2  907.73   13.15
   1  -2   3  184.98    3.17
   1  -2   3  192.98    3.28
  -1   2  -4  578.08    8.51
  -1   2  -4  568.71    8.67
  -1   2  -4  561.62    8.71
  -1   2  -5  132.76    2.89
  -1   2  -5  126.57    2.75
  -1   2  -5  127.38    2.62
  -1   2  -6  217.53    4.27
  -1   2  -6  202.66    4.34
  -1   2  -6  210.97    4.10
  -1   2  -6  215.78    4.01
  -1   2  -6  205.01    4.26
  -1   2  -7  263.42    5.10
  -1   2  -7  257.72    4.90
  -1   2  -7  263.45    5.32
   1  -2   7  264.86    5.57
  -1   2  -7  267.90    5.20
  -1   2  -7  258.98    5.25
  -1   2  -8  450.35    7.90
   1  -2   8  448.76    8.45
  -1   2  -8  452.26    7.99
  -1   2  -8  444.51    8.17
  -1   2  -8  445.72    7.79
  -1   2  -9  410.40    7.51
   1  -2   9  362.97    7.60
   1  -2  10   97.89    3.31
  -1   2 -10   98.17    2.91
  -1   2 -11   34.12    1.59
   1  -2  11   33.78    1.82
  -1   2 -12    2.37    0.57
   1  -2  12    3.35    0.74
   1  -2  13    6.43    0.62
  -1   1  14    8.86    0.88
   1  -1 -14    7.27    0.57
  -1   1  13   39.13    1.94
   1  -1 -13   36.35    1.43
  -1   1  12    0.61    0.76
   1  -1 -12    1.19    0.59
   1  -1 -11  236.85    4.83
  -1   1  11  226.04    5.65
  -1   1  10  162.09    4.42
   1  -1 -10  163.39    3.80
  -1   1  10  178.16    4.74
  -1   1  10  162.26    4.45
   1  -1 -10  172.64    3.76
  -1   1   9  358.00    7.35
   1  -1  -9  362.09    6.54
   1  -1  -9  380.12    6.57
  -1   1   9  357.17    7.39
   1  -1  -8  216.53    4.33
  -1   1   8  221.99    4.96
   1  -1  -8  228.10    4.25
   1  -1  -8  230.87    4.28
  -1   1   8  237.71    5.19
   1  -1  -7  231.19    4.05
   1  -1  -7  215.04    4.17
   1  -1  -6 1729.68   23.78
   1  -1  -6 1679.80   23.55
   1  -1  -5  747.28   11.12
   1  -1  -5  723.98   11.24
   1  -1  -4    3.68    0.31
   1  -1  -4    4.01    0.34
   1  -1  -3    5.06    0.34
   1  -1  -3    4.34    0.34
   1  -1  -2  916.39   13.32
   1  -1  -2  958.37   13.44
   1  -1  -1   61.95    0.96
   1  -1   0 2476.79   35.12
   1  -1   0 2522.39   35.24
  -1   1   0 2539.79   35.38
  -1   1  -1  196.95    3.02
   1  -1   1  197.92    2.93
   1  -1   2  134.78    2.15
  -1   1  -2  131.47    2.31
   1  -1   3  255.31    3.98
  -1   1  -3  264.78    4.18
   1  -1   3  256.54    3.96
  -1   1  -4 1079.86   15.92
  -1   1  -4 1092.94   15.98
  -1   1  -5  478.30    7.67
  -1   1  -5  471.24    7.60
  -1   1  -5  487.45    7.58
  -1   1  -6  499.07    7.98
  -1   1  -6  489.91    7.92
  -1   1  -6  486.05    8.05
  -1   1  -7 1440.87   21.60
  -1   1  -7 1466.98   21.60
  -1   1  -7 1451.95   21.76
  -1   1  -7 1444.58   22.01
   1  -1   8  238.43    5.20
  -1   1  -8  248.17    4.89
  -1   1  -8  238.41    4.74
  -1   1  -8  249.27    5.12
  -1   1  -9  385.81    7.06
  -1   1  -9  343.85    6.64
  -1   1  -9  382.86    6.97
   1  -1   9  355.20    7.26
   1  -1  10    2.67    0.89
  -1   1 -10    0.51    0.63
  -1   1 -11   36.74    1.74
   1  -1  11   37.27    2.02
   1  -1  12    3.60    0.85
  -1   1 -12    3.42    0.69
  -1   1 -13    7.67    0.65
   1  -1  13    8.80    0.87
  -1   0  14   60.03    1.92
  -1   0  13  234.09    5.27
  -1   0  12   31.68    1.88
   1   0 -12   25.05    1.22
   1   0 -11   33.46    1.46
  -1   0  11   38.54    2.13
   1   0 -11   31.96    1.49
  -1   0  11   41.63    2.13
  -1   0  10  345.68    7.08
   1   0 -10  281.87    5.75
  -1   0  10  347.03    7.17
  -1   0  10  321.30    7.08
   1   0 -10  295.97    5.93
   1   0 -10  294.94    5.73
  -1   0   9  368.77    7.72
   1   0  -9  360.60    6.74
   1   0  -9  368.65    6.86
   1   0  -8  759.13   12.03
   1   0  -8  780.08   12.04
   1   0  -8  758.13   11.97
  -1   0   8  780.19   13.29
   1   0  -7 2060.34   30.01
   1   0  -7 2068.43   29.96
   1   0  -6  511.93    8.21
   1   0  -6  541.77    8.32
   1   0  -5    1.47    0.24
   1   0  -5    1.62    0.32
   1   0  -5    1.60    0.37
   1   0  -4  365.74    5.12
   1   0  -4  335.42    4.99
  -1   0   3   86.27    1.49
   1   0  -3   83.52    1.40
  -1   0   2  210.77    3.25
   1   0  -2  203.02    3.10
  -1   0   1   25.45    0.62
  -1   0   1   24.17    0.63
  -1   0   1   25.65    0.65
  -1   0   0    5.76    0.19
  -1   0   0    5.75    0.21
  -1   0  -1   97.71    1.64
  -1   0  -1   99.55    1.66
  -1   0  -1  102.32    1.60
   1   0   1  102.11    1.52
   1   0   2  661.18    9.27
  -1   0  -2  657.48    9.61
  -1   0  -2  645.48    9.61
  -1   0  -2  660.77    9.51
  -1   0  -2  648.95    9.32
  -1   0  -3 1489.81   21.29
  -1   0  -3 1478.87   21.30
  -1   0  -4  479.98    7.44
  -1   0  -4  487.33    7.43
  -1   0  -4  477.90    7.38
  -1   0  -5   37.97    1.12
  -1   0  -5   39.19    1.18
  -1   0  -5   40.83    1.20
  -1   0  -6  505.07    7.95
  -1   0  -6  501.80    7.86
  -1   0  -7  276.61    4.94
  -1   0  -7  269.26    4.78
  -1   0  -7  259.35    4.86
  -1   0  -8    3.27    0.47
  -1   0  -8    3.67    0.58
  -1   0  -8    3.18    0.57
  -1   0  -8    3.03    0.54
  -1   0  -8    3.42    0.72
  -1   0  -9  144.73    3.41
  -1   0  -9  133.85    3.30
  -1   0  -9  137.10    3.31
  -1   0  -9  148.30    3.54
  -1   0 -10   85.37    2.66
  -1   0 -10   79.34    2.51
   1   0  10   80.38    2.95
  -1   0 -11    0.45    0.61
   1   0  11    0.46    0.77
  -1   0 -12   64.15    2.20
   1   0  12   66.24    2.63
   1   0  13   41.26    1.87
  -1   0 -13   38.89    1.48
   1   0  14    3.86    0.58
  -1  -1  13    5.75    0.81
  -1  -1  12   36.28    1.84
  -1  -1  12   36.44    1.88
   1   1 -12   33.39    1.43
  -1  -1  11    6.44    1.05
  -1  -1  11    8.15    1.10
   1   1 -11    6.81    0.82
   1   1 -10    2.04    0.61
   1   1 -10    1.63    0.54
  -1  -1  10    1.78    0.82
  -1  -1  10    1.48    0.82
   1   1  -9  138.20    3.14
  -1  -1   9  136.85    4.03
   1   1  -9  138.35    3.29
   1   1  -8  502.05    8.25
   1   1  -8  474.74    8.17
  -1  -1   8  469.41    9.01
   1   1  -8  501.09    8.08
   1   1  -7   46.74    1.47
   1   1  -7   44.83    1.42
   1   1  -6 2063.20   29.49
   1   1  -6 2015.70   29.49
   1   1  -5    1.51    0.33
   1   1  -5    1.73    0.43
   1   1  -5    1.61    0.25
   1   1  -4  901.66   12.83
   1   1  -4  878.19   12.62
  -1  -1   4  865.53   12.96
  -1  -1   4  855.47   12.50
  -1  -1   3 1392.35   20.39
   1   1  -3 1424.71   20.07
  -1  -1   3 1351.47   20.14
   1   1  -2  343.41    4.97
   1   1  -2  352.49    5.07
  -1  -1   2  358.20    5.22
  -1  -1   1   11.46    0.41
  -1  -1   0  663.15    9.78
  -1  -1   0  682.77    9.66
  -1  -1  -1  909.26   12.80
  -1  -1  -1  898.74   12.80
  -1  -1  -1  900.96   12.80
  -1  -1  -1  938.52   12.88
  -1  -1  -1  866.30   12.76
  -1  -1  -2  311.25    4.57
  -1  -1  -2  319.44    4.65
  -1  -1  -3  137.26    2.09
  -1  -1  -3  122.06    2.31
  -1  -1  -4  104.20    2.08
  -1  -1  -4   99.62    1.59
  -1  -1  -5  374.13    6.21
  -1  -1  -5  389.95    6.12
  -1  -1  -6 2015.99   28.87
  -1  -1  -6 1979.70   28.69
  -1  -1  -6 1961.76   28.81
  -1  -1  -7 1110.15   16.53
  -1  -1  -7 1093.61   16.71
  -1  -1  -7 1113.29   16.71
  -1  -1  -8   38.84    1.50
  -1  -1  -8   35.92    1.45
   1   1   8   37.53    1.70
  -1  -1  -8   36.55    1.37
  -1  -1  -8   38.70    1.44
  -1  -1  -8   37.43    1.30
   1   1   9  471.49    8.82
  -1  -1  -9  457.37    7.92
  -1  -1  -9  462.67    8.25
  -1  -1  -9  465.64    8.13
  -1  -1  -9  488.71    8.31
  -1  -1  -9  482.29    8.24
   1   1  10  238.84    5.61
  -1  -1 -10  243.37    5.09
  -1  -1 -10  231.33    4.75
  -1  -1 -10  252.87    5.15
  -1  -1 -10  239.72    5.06
  -1  -1 -11   24.00    1.37
   1   1  11   25.10    1.70
  -1  -1 -11   25.23    1.41
   1   1  12  116.31    3.68
  -1  -1 -12  113.39    3.09
  -1  -1 -13  229.21    4.64
   1   1  13  240.58    5.45
   1   1  14   11.28    0.95
  -1  -2  13   14.39    0.95
  -1  -2  12   37.84    1.78
  -1  -2  12   36.63    1.71
   1   2 -12   35.22    1.39
  -1  -2  11    4.36    0.96
   1   2 -11    4.38    0.73
  -1  -2  11    6.33    1.00
   1   2 -10  439.11    7.98
  -1  -2  10  424.23    8.80
  -1  -2  10  452.01    8.85
  -1  -2   9   18.03    1.52
   1   2  -9   17.24    1.10
   1   2  -8    3.31    0.60
  -1  -2   8    2.26    0.75
   1   2  -7  884.11   13.57
   1   2  -7  850.04   13.88
   1   2  -7  887.78   13.55
  -1  -2   7  862.55   14.38
   1   2  -6  645.05   10.27
   1   2  -6  672.56   10.37
  -1  -2   5  539.58    8.63
   1   2  -5  546.01    8.50
   1   2  -5  533.25    8.50
   1   2  -4   84.00    1.69
   1   2  -4   88.55    1.87
  -1  -2   4   86.86    2.00
   1   2  -3 2257.35   32.01
  -1  -2   3 2161.95   31.94
  -1  -2   2 1916.58   26.73
  -1  -2   2 1923.43   26.98
  -1  -2   1  652.89    9.91
  -1  -2   1  669.33   10.00
  -1  -2   0 2309.08   33.14
   1   2   0 2320.57   33.06
   1   2   0 2368.83   32.92
  -1  -2  -1 4070.84   57.27
  -1  -2  -2 4737.51   67.65
  -1  -2  -2 4861.38   67.54
  -1  -2  -3 9993.79  139.27
  -1  -2  -3 9796.51  139.46
  -1  -2  -3 9999.00  139.53
  -1  -2  -4  285.69    4.63
  -1  -2  -4  283.71    4.22
  -1  -2  -5  171.67    3.18
  -1  -2  -5  186.52    3.20
  -1  -2  -6  199.95    4.01
  -1  -2  -6  211.78    3.91
  -1  -2  -7   75.25    1.91
  -1  -2  -7   79.29    2.07
  -1  -2  -7   74.99    2.09
  -1  -2  -8  527.77    8.72
  -1  -2  -8  502.97    8.54
   1   2   8  505.69    9.34
  -1  -2  -9    6.16    0.69
   1   2   9    4.83    0.85
  -1  -2  -9    3.98    0.61
  -1  -2  -9    4.14    0.65
  -1  -2  -9    4.31    0.72
  -1  -2 -10    0.38    0.53
   1   2  10    1.83    0.77
  -1  -2 -10    0.05    0.59
  -1  -2 -10    0.94    0.54
   1   2  11  102.02    3.40
  -1  -2 -11  100.83    2.93
  -1  -2 -11   95.33    2.68
  -1  -2 -11   97.62    2.80
  -1  -2 -12   57.19    2.03
  -1  -2 -12   58.61    1.98
   1   2  12   62.96    2.64
  -1  -2 -13   40.19    1.51
   1   2  13   44.75    2.10
   1   2  14   25.95    1.44
  -1  -2 -14   24.41    1.12
  -1  -3  12    1.25    0.57
  -1  -3  12    1.14    0.57
   1   3 -12    1.30    0.45
   1   3 -11    9.82    0.85
  -1  -3  11    9.07    1.04
  -1  -3  11    9.14    1.05
  -1  -3  10    9.02    1.12
  -1  -3  10    7.43    1.10
   1   3 -10    9.14    0.92
  -1  -3   9 1109.54   18.48
  -1  -3   8  164.31    4.41
   1   3  -8  157.67    3.54
   1   3  -7  349.28    6.25
   1   3  -7  340.41    6.56
   1   3  -7  336.49    6.06
  -1  -3   7  339.62    6.97
   1   3  -6  203.95    4.27
  -1  -3   6  194.98    4.59
   1   3  -6  207.29    4.05
   1   3  -6  191.65    3.81
   1   3  -5   17.67    0.90
  -1  -3   5   16.95    0.91
   1   3  -5   19.28    0.93
  -1  -3   4  510.13    8.42
   1   3  -4  512.66    8.29
   1   3  -4  522.99    8.08
  -1  -3   3 3701.44   54.03
  -1  -3   3 3825.62   54.21
  -1  -3   2    2.17    0.41
  -1  -3   2    1.55    0.27
  -1  -3   2    2.39    0.31
  -1  -3   1  520.01    7.55
  -1  -3   1  471.94    7.66
   1   3   0  620.24    9.64
  -1  -3   0  686.47    9.68
  -1  -3  -1  148.86    2.61
  -1  -3  -1  157.70    2.63
  -1  -3  -2   19.16    0.62
  -1  -3  -3  299.15    4.86
   1   3   3  298.99    4.78
  -1  -3  -4  588.99    8.73
  -1  -3  -4  590.30    8.93
  -1  -3  -5 2187.32   31.56
  -1  -3  -5 2302.41   32.04
  -1  -3  -6 3550.62   50.76
  -1  -3  -7   49.37    1.55
  -1  -3  -8  107.11    2.56
  -1  -3  -9  478.05    8.26
   1   3   9  493.09    9.41
  -1  -3  -9  484.30    8.10
  -1  -3  -9  465.44    8.43
   1   3  10  174.87    4.44
  -1  -3 -10  166.08    4.04
   1   3  10  170.41    4.65
  -1  -3 -10  164.66    3.81
  -1  -3 -11    1.01    0.64
   1   3  11    1.69    0.82
  -1  -3 -11    0.61    0.59
   1   3  12    1.03    0.74
  -1  -3 -12    0.41    0.57
  -1  -3 -13   80.95    2.37
   1   3  13   83.84    2.96
   1   3  14    3.91    0.79
  -1  -3 -14    3.72    0.56
   1   3  15   28.45    1.27
  -1  -4  11   31.39    1.52
   1   4 -11   28.97    1.23
  -1  -4  11   30.12    1.52
  -1  -4  10    4.92    0.93
  -1  -4  10    3.48    0.90
   1   4 -10    4.43    0.70
  -1  -4   9    7.58    1.11
  -1  -4   8    0.64    0.81
   1   4  -7  374.81    6.72
   1   4  -7  386.45    7.27
  -1  -4   7  381.96    7.77
  -1  -4   6   76.25    2.54
   1   4  -6   74.95    2.21
   1   4  -6   71.31    1.99
   1   4  -6   77.46    2.44
  -1  -4   6   74.57    2.68
   1   4  -6   76.03    2.23
   1   4  -5  724.42   11.61
   1   4  -5  735.39   11.42
   1   4  -5  701.18   11.06
   1   4  -4  271.98    4.81
  -1  -4   4  259.31    4.85
   1   4  -4  260.16    4.72
  -1  -4   3   13.57    0.70
  -1  -4   3   13.82    0.95
  -1  -4   2  350.85    5.77
  -1  -4   2  365.62    6.21
  -1  -4   2  352.34    5.86
  -1  -4   1  229.64    3.92
  -1  -4   1  230.85    4.17
   1   4   0  188.68    3.43
  -1  -4   0  196.29    3.38
   1   4   1  228.66    3.79
  -1  -4  -1  226.92    3.91
  -1  -4  -2 1617.25   22.75
  -1  -4  -2 1534.74   22.68
  -1  -4  -3  235.25    3.93
   1   4   4  897.23   13.13
  -1  -4  -4  908.84   13.20
  -1  -4  -5 2742.01   38.87
   1   4   5 2686.93   38.94
  -1  -4  -5 2700.55   38.59
   1   4   6 2371.12   36.07
  -1  -4  -6 2573.54   35.88
   1   4   7  609.85   10.63
  -1  -4  -7  668.11   10.38
   1   4   8  255.34    5.24
  -1  -4  -8  257.77    4.75
  -1  -4  -9  102.07    2.79
   1   4   9  106.60    3.56
   1   4   9  110.65    3.28
  -1  -4  -9  104.18    2.65
  -1  -4 -10   17.50    1.18
   1   4  10   20.32    1.44
   1   4  10   19.78    1.60
  -1  -4 -10   17.05    1.25
   1   4  11    2.78    0.74
  -1  -4 -11    2.12    0.69
   1   4  11    2.46    0.86
  -1  -4 -12   41.09    1.75
   1   4  12   44.12    2.28
   1   4  13   19.80    1.48
  -1  -4 -13   18.26    1.15
  -1  -4 -13   18.05    1.11
  -1  -4 -14   43.76    1.56
   1   4  14   49.37    2.05
  -1  -4 -15   24.00    0.92
   1   4  15   27.33    1.29
   1   5 -11   13.70    0.73
  -1  -5  11   15.88    0.92
   1   5 -10  122.92    2.90
  -1  -5  10  131.98    3.38
  -1  -5  10  121.90    3.35
  -1  -5   9  202.19    4.96
  -1  -5   8   37.89    1.88
  -1  -5   8   37.78    2.04
  -1  -5   7  221.72    5.36
   1   5  -7  220.93    4.91
   1   5  -6 1185.93   18.36
  -1  -5   6 1213.13   18.60
   1   5  -5    5.39    0.77
  -1  -5   5    4.02    0.86
   1   5  -5    3.48    0.52
  -1  -5   5    3.57    0.88
   1   5  -5    5.00    0.70
  -1  -5   4  356.24    7.09
  -1  -5   4  386.80    7.63
   1   5  -4  377.83    6.78
   1   5  -4  385.43    6.83
   1   5  -4  386.94    6.66
   1   5  -4  362.97    6.33
  -1  -5   3  135.28    3.43
  -1  -5   3  133.38    2.90
  -1  -5   2  602.77    9.45
  -1  -5   2  614.32    9.99
  -1  -5   2  581.79    9.56
  -1  -5   1   88.46    2.03
  -1  -5   1   92.99    2.39
  -1  -5   0    7.61    0.68
  -1  -5   0    8.93    0.57
   1   5   0    7.01    0.58
   1   5   1  653.89   10.10
   1   5   1  684.15   10.43
  -1  -5  -2  756.49   11.42
  -1  -5  -2  741.00   11.46
   1   5   2  753.80   11.39
  -1  -5  -3  200.75    3.68
  -1  -5  -3  208.31    3.76
  -1  -5  -4  409.81    6.65
  -1  -5  -5   15.54    0.76
  -1  -5  -5   15.95    0.82
   1   5   6  112.14    2.70
  -1  -5  -6  121.12    2.74
   1   5   7  815.29   13.61
  -1  -5  -7  885.60   13.48
  -1  -5  -8 1098.70   17.05
  -1  -5  -8 1097.61   17.07
  -1  -5  -8 1134.45   17.00
   1   5   8 1016.59   17.77
   1   5   8 1051.25   17.41
   1   5   9  121.70    3.98
   1   5   9  129.38    3.71
  -1  -5  -9  130.66    3.21
   1   5  10   79.25    3.20
  -1  -5 -10   74.44    2.32
   1   5  10   75.19    2.84
  -1  -5 -11    7.15    0.90
  -1  -5 -11    8.07    0.94
  -1  -5 -12   49.87    1.98
  -1  -5 -12   50.97    1.99
  -1  -5 -13    6.30    0.84
  -1  -5 -13    6.41    0.75
   1   5  13    7.30    1.08
  -1  -5 -14    1.32    0.45
   1   5  14    2.15    0.69
  -1  -5 -15    1.95    0.35
   1   5  15    1.81    0.54
  -1  -6  10  234.40    4.74
  -1  -6  10  258.34    4.73
  -1  -6   9   33.26    1.66
  -1  -6   8   57.68    2.37
  -1  -6   8   59.47    2.22
   1   6  -7   13.29    1.12
   1   6  -7   12.40    0.98
   1   6  -6   16.55    1.18
   1   6  -6   19.23    1.36
  -1  -6   6   18.24    1.51
  -1  -6   5   44.23    2.20
   1   6  -5   40.04    1.73
  -1  -6   5   41.45    2.08
  -1  -6   4  269.02    6.01
  -1  -6   4  292.52    6.36
   1   6  -4  274.62    5.65
   1   6  -4  285.32    5.66
   1   6  -4  271.62    5.48
  -1  -6   3  958.44   15.01
   1   6  -3  935.28   14.69
   1   6  -3  902.39   14.63
  -1  -6   3  964.01   15.73
  -1  -6   3  870.31   15.11
   1   6  -2   10.89    0.85
   1   6  -2   11.79    0.84
  -1  -6   2   12.62    1.34
  -1  -6   2   11.88    0.76
  -1  -6   2   10.43    1.20
  -1  -6   1  309.23    5.49
  -1  -6   1  315.72    6.06
   1   6   0  214.40    4.22
  -1  -6   0  214.51    4.39
  -1  -6   0  204.70    4.00
  -1  -6  -1    0.57    0.32
   1   6   1    0.37    0.36
   1   6   2   14.38    0.74
   1   6   2   16.74    0.93
  -1  -6  -3  221.85    4.14
  -1  -6  -3  221.82    4.19
   1   6   3  213.95    4.15
  -1  -6  -4   43.08    1.43
  -1  -6  -4   43.81    1.44
  -1  -6  -5    4.12    0.55
  -1  -6  -6    5.20    0.61
  -1  -6  -6    4.65    0.53
  -1  -6  -7  113.43    2.89
  -1  -6  -7  108.24    2.76
   1   6   7  104.17    3.18
  -1  -6  -7  105.58    2.75
  -1  -6  -8   16.25    1.07
   1   6   8   13.47    1.22
  -1  -6  -8   15.17    1.17
  -1  -6  -8   16.18    1.13
   1   6   9   51.13    2.51
  -1  -6  -9   56.67    2.20
  -1  -6  -9   56.18    2.10
  -1  -6  -9   54.42    2.13
  -1  -6 -10  924.57   15.02
   1   6  10  978.51   16.62
  -1  -6 -10  954.90   14.95
  -1  -6 -11   26.01    1.56
   1   6  11   27.34    2.04
  -1  -6 -12    0.07    0.50
   1   6  12   -0.04    0.85
  -1  -6 -13   28.60    1.38
   1   6  13   30.88    1.83
   1   6  13   31.25    1.59
   1   6  14   60.04    1.92
   1   6  14   63.02    2.27
   1   6  15  121.46    2.95
   1   7  -9   31.55    1.06
  -1  -7   9   31.62    1.32
   1   7  -8   17.97    0.97
   1   7  -7  105.34    2.65
  -1  -7   7  108.93    3.30
  -1  -7   7  115.05    3.27
   1   7  -6   92.05    2.69
  -1  -7   6   96.01    3.17
   1   7  -5   25.77    1.54
  -1  -7   5   21.88    1.62
  -1  -7   5   25.59    1.63
  -1  -7   4   17.64    1.48
   1   7  -4   17.21    1.30
  -1  -7   4   18.52    1.52
  -1  -7   3    1.49    0.98
   1   7  -3    0.54    0.64
  -1  -7   3    1.66    0.87
   1   7  -3    0.47    0.60
  -1  -7   3    0.86    0.78
  -1  -7   2  234.01    5.64
  -1  -7   2  248.33    5.86
   1   7  -2  249.26    5.12
   1   7  -2  249.85    5.15
  -1  -7   1   98.33    3.05
   1   7  -1  100.14    2.69
   1   7  -1  101.94    2.72
  -1  -7   0    5.30    0.86
  -1  -7   0    6.70    0.60
   1   7   0    5.94    0.67
  -1  -7   0    5.52    0.59
   1   7   1   50.79    1.81
  -1  -7  -1   48.37    1.62
  -1  -7  -1   55.36    1.72
   1   7   1   54.41    1.85
  -1  -7  -2  587.79    9.83
  -1  -7  -2  602.98    9.89
   1   7   2  617.94   10.18
   1   7   2  601.72   10.28
   1   7   3  294.84    5.73
   1   7   3  285.39    5.79
  -1  -7  -4  403.57    7.06
   1   7   4  394.31    6.98
  -1  -7  -4  396.02    6.91
  -1  -7  -5   22.71    1.14
  -1  -7  -5   23.56    1.22
   1   7   5   22.00    1.28
   1   7   5   22.11    1.32
  -1  -7  -6  145.35    3.17
   1   7   6  147.23    3.87
   1   7   6  144.88    3.73
  -1  -7  -6  149.19    3.41
   1   7   7   42.75    1.93
   1   7   7   43.14    2.01
   1   7   8  163.44    4.47
   1   7   8  165.47    4.57
  -1  -7  -9  103.04    3.09
  -1  -7  -9  100.80    2.98
   1   7   9   96.66    3.53
   1   7   9   91.90    3.33
   1   7  10  371.55    8.09
  -1  -7 -10  357.54    7.25
   1   7  10  385.48    8.49
   1   7  11    3.83    1.11
   1   7  11    3.11    0.92
  -1  -7 -11    2.97    0.71
   1   7  12    0.69    0.93
  -1  -7 -12    0.46    0.55
   1   7  12    0.43    0.69
   1   7  13   19.64    1.47
   1   7  13   16.82    1.18
   1   7  14    4.52    0.74
   1   7  14    4.15    0.57
   1   7  15    1.31    0.45
  -1  -8   7   61.41    2.09
   1   8  -7   59.08    1.68
  -1  -8   7   58.01    1.89
  -1  -8   6   14.76    1.20
   1   8  -6   12.81    0.91
   1   8  -6   15.74    1.05
  -1  -8   5  251.62    5.65
   1   8  -5  268.25    5.42
  -1  -8   4    8.42    1.09
   1   8  -4    8.20    1.02
  -1  -8   4    7.88    1.11
   1   8  -3   58.09    2.23
  -1  -8   3   56.85    2.44
  -1  -8   3   58.48    2.55
   1   8  -3   62.56    2.30
   1   8  -2   38.75    1.74
   1   8  -2   39.69    1.83
  -1  -8   2   39.72    1.91
  -1  -8   2   43.03    2.18
   1   8  -1    5.17    0.75
  -1  -8   1    5.11    1.07
  -1  -8   1    4.43    0.99
   1   8  -1    3.46    0.77
  -1  -8   0  635.62   11.15
   1   8   0  636.92   10.47
  -1  -8   0  609.43   11.35
  -1  -8  -1   32.51    1.36
  -1  -8  -1   32.38    1.39
   1   8   1   35.58    1.54
   1   8   1   32.28    1.50
  -1  -8  -1   34.13    1.76
  -1  -8  -2   44.18    1.63
  -1  -8  -2   46.84    1.68
   1   8   2   43.96    1.77
   1   8   2   42.84    1.78
  -1  -8  -2   45.01    1.94
  -1  -8  -3  290.51    5.52
  -1  -8  -3  295.03    5.96
   1   8   3  286.29    5.82
   1   8   3  293.54    5.98
  -1  -8  -3  287.29    5.48
  -1  -8  -4   30.27    1.34
   1   8   4   31.41    1.60
  -1  -8  -4   32.84    1.60
   1   8   4   30.53    1.54
  -1  -8  -4   32.24    1.32
  -1  -8  -5   10.99    0.99
  -1  -8  -5   11.89    0.90
   1   8   5   11.24    1.06
  -1  -8  -5   10.98    0.80
  -1  -8  -5   11.16    0.85
  -1  -8  -6   52.55    1.79
  -1  -8  -6   59.30    2.05
  -1  -8  -6   54.94    1.89
   1   8   6   55.43    2.22
  -1  -8  -6   56.59    2.08
   1   8   6   59.79    2.17
   1   8   6   57.67    2.30
   1   8   7  204.98    5.07
  -1  -8  -7  215.61    4.71
   1   8   7  205.39    4.96
   1   8   8   36.64    1.92
   1   8   8   39.46    2.04
   1   8   9   27.22    1.81
   1   8   9   27.27    1.76
   1   8  10   14.27    1.41
   1   8  10   15.47    1.55
   1   8  11   31.19    1.93
   1   8  11   29.50    2.03
   1   8  12   74.59    2.74
   1   8  12   72.67    3.00
   1   8  13   67.68    2.29
   1   8  13   74.10    2.66
   1   8  14    3.51    0.64
   1   8  14    3.09    0.49
   1   8  15   24.48    0.99
   1   9  -6   78.71    1.80
  -1  -9   6   78.97    2.16
   1   9  -5   23.66    1.12
   1   9  -5   26.07    1.23
  -1  -9   5   27.70    1.43
   1   9  -4  177.89    4.01
  -1  -9   4  178.69    4.03
  -1  -9   4  173.58    4.27
   1   9  -3   77.98    2.50
  -1  -9   3   76.20    2.73
  -1  -9   3   69.87    2.60
   1   9  -2    7.72    0.92
  -1  -9   2    8.15    1.08
   1   9  -2    9.19    1.04
  -1  -9   2    7.27    1.00
  -1  -9   1   13.09    1.28
   1   9  -1   15.03    1.13
   1   9   0    3.11    0.80
  -1  -9   0    2.21    0.90
   1   9   1   15.38    1.16
   1   9   1   13.19    1.06
  -1  -9  -1   13.10    1.22
   1   9   2  638.62   10.81
   1   9   2  607.02   10.64
  -1  -9  -2  641.30   10.54
  -1  -9  -3    1.66    0.76
   1   9   3    1.69    0.56
  -1  -9  -3    2.00    0.52
  -1  -9  -3    1.87    0.54
   1   9   3    1.76    0.66
  -1  -9  -4    6.41    0.95
  -1  -9  -4    5.92    0.74
  -1  -9  -4    7.07    0.74
   1   9   4    6.69    0.87
   1   9   4    6.42    0.83
  -1  -9  -5   29.08    1.38
  -1  -9  -5   30.59    1.72
   1   9   5   30.11    1.66
  -1  -9  -5   28.95    1.34
   1   9   5   29.54    1.61
  -1  -9  -6  970.55   14.97
   1   9   6  886.74   15.53
   1   9   6  983.93   15.80
  -1  -9  -6  949.03   14.86
  -1  -9  -6  897.03   15.50
  -1  -9  -7  284.13    5.87
  -1  -9  -7  275.84    5.52
   1   9   7  273.20    6.12
  -1  -9  -8   65.65    2.18
   1   9   8   64.51    2.58
   1   9   8   63.49    2.57
  -1  -9  -9    1.25    0.52
   1   9   9    2.11    0.76
   1   9  10   16.85    1.47
   1   9  10   17.68    1.48
   1   9  11    5.85    1.03
   1   9  11    5.56    0.97
   1   9  12   31.11    1.66
   1   9  12   28.96    1.76
   1   9  13  166.76    3.78
   1   9  13  167.25    4.05
   1   9  14    0.19    0.39
   1  10  -4   28.32    1.12
   1  10  -4   29.89    1.19
  -1 -10   4   30.16    1.31
  -1 -10   3   13.91    0.96
   1  10  -3   13.94    0.98
  -1 -10   3   13.76    1.04
   1  10  -3   12.78    0.92
   1  10  -2    3.52    0.69
  -1 -10   2    2.80    0.72
  -1 -10   2    3.27    0.76
   1  10  -1   45.51    1.79
  -1 -10   1   42.56    1.88
  -1 -10   1   42.43    1.86
   1  10   0   84.99    2.69
   1  10   0   89.25    2.61
   1  10   1   11.85    1.00
   1  10   1   12.20    1.08
   1  10   2   41.05    1.74
   1  10   2   37.85    1.71
   1  10   3  148.12    3.72
   1  10   3  139.90    3.54
   1  10   4   55.87    2.18
  -1 -10  -4   54.41    1.87
   1  10   5  235.51    5.29
  -1 -10  -5  233.48    4.79
   1  10   6  196.33    4.78
  -1 -10  -6  195.06    4.20
  -1 -10  -7  230.08    4.69
   1  10   7  218.49    5.22
  -1 -10  -8    0.88    0.46
   1  10   8    0.69    0.65
   1  10   9  130.69    3.82
  -1 -10  -9  137.20    3.29
  -1 -10 -10   28.33    1.31
   1  10  10   30.52    1.77
   1  10  11    0.88    0.68
   1  10  12    4.61    0.78
   1  10  13   98.32    2.59
   1  11  -3   13.51    0.68
   1  11  -2   63.35    1.79
   1  11  -2   59.46    1.72
  -1 -11   2   63.19    1.72
   1  11  -1   19.96    1.07
  -1 -11   1   19.45    1.14
   1  11   0    2.68    0.58
  -1 -11   0    2.51    0.67
   1  11   1   51.64    1.84
   1  11   1   48.28    1.86
   1  11   2  101.32    2.85
   1  11   2  113.18    2.89
   1  11   3  150.51    3.68
   1  11   3  166.00    3.76
   1  11   4   69.07    2.24
   1  11   4   62.38    2.12
   1  11   5   78.67    2.48
  -1 -11  -5   78.82    2.19
  -1 -11  -6  246.52    4.69
   1  11   6  252.03    5.20
  -1 -11  -7  280.80    5.25
   1  11   7  275.61    5.74
  -1 -11  -8  266.28    4.99
   1  11   8  258.20    5.55
   1  11   9    1.37    0.62
   1  11  10   32.92    1.62
   1  11  11   24.68    1.34
   1  11  12   10.94    0.84
   1  12   0    1.14    0.41
   1  12   0    1.28    0.45
  -1 -12  -1    0.09    0.46
   1  12   1    0.34    0.40
   1  12   2   73.04    1.99
  -1 -12  -2   70.63    2.06
   1  12   3   37.48    1.39
   1  12   3   30.85    1.33
   1  12   4   25.58    1.21
   1  12   4   30.48    1.26
   1  12   5  162.71    3.43
   1  12   5  144.89    3.34
   1  12   6   25.10    1.20
   1  12   7  104.00    2.64
   1  12   8   34.85    1.43
   1  12   9   14.65    0.95
   1  12  10   89.49    2.36
   1  12  11   91.74    2.22
   1  13   4  197.81    3.54
   1  13   5    8.30    0.57
   1  13   6  174.06    3.27
   1  13   7   47.24    1.32
   1  13   8    4.24    0.42
  -2  11  10    4.32    0.53
  -2  11   9   23.12    1.07
  -2  11   9   23.96    0.99
  -2  11   8   57.42    1.65
  -2  11   8   53.42    1.67
  -2  11   7   62.52    1.73
  -2  11   7   56.76    1.71
  -2  11   6   11.97    0.74
  -2  11   5    0.50    0.36
  -2  11   4  225.25    4.18
  -2  11   3   57.80    1.62
  -2  11   2  204.86    3.79
  -2  11   1  158.86    3.04
  -2  10  11    0.50    0.40
  -2  10  10    2.24    0.55
  -2  10   9    0.22    0.44
  -2  10   8    0.96    0.48
  -2  10   7    5.43    0.73
  -2  10   6  160.68    3.82
  -2  10   6  171.82    3.84
  -2  10   5    8.55    0.80
  -2  10   5    6.93    0.80
  -2  10   4  189.43    3.99
  -2  10   4  182.41    3.96
  -2  10   3   60.44    1.92
  -2  10   2   44.21    1.59
  -2  10   1   85.14    2.25
   2 -10  -1   77.24    2.70
   2 -10   0   66.30    2.36
  -2  10   0   67.55    1.90
  -2  10  -1   77.92    2.01
   2 -10   1   82.83    2.40
  -2  10  -1   70.24    1.98
  -2  10  -1   69.02    1.91
  -2  10  -2  242.49    4.57
  -2  10  -2  258.87    4.66
   2 -10   2  300.02    5.17
  -2  10  -2  300.18    4.77
  -2   9  12   74.90    2.17
  -2   9  11   52.87    2.00
  -2   9  11   58.47    2.14
  -2   9  10   74.45    2.54
  -2   9  10   76.68    2.62
  -2   9   9  101.71    3.07
  -2   9   8  248.67    5.38
  -2   9   8  232.94    5.22
  -2   9   7    0.54    0.52
  -2   9   7    1.53    0.61
  -2   9   6   96.12    2.87
  -2   9   6   97.19    2.91
  -2   9   5  253.83    5.40
  -2   9   4  198.34    4.42
  -2   9   4  191.68    4.44
  -2   9   3   55.55    2.01
  -2   9   3   53.39    1.99
  -2   9   2  216.17    4.58
  -2   9   1   23.58    1.24
  -2   9   0  133.46    3.24
  -2   9  -1  325.01    5.91
   2  -9   1  315.72    6.91
   2  -9   2    4.45    0.98
  -2   9  -2    3.87    0.66
  -2   9  -2    4.28    0.70
  -2   9  -2    3.59    0.69
  -2   9  -3   91.16    2.37
  -2   9  -3   98.67    2.41
   2  -9   3  103.07    2.86
  -2   9  -3   85.73    2.24
  -2   9  -4   52.81    1.47
   2  -9   4   55.30    1.81
  -2   8  13  475.85    8.13
  -2   8  13  486.34    8.25
  -2   8  12   56.43    2.15
  -2   8  12   56.83    2.09
  -2   8  11  116.82    3.49
  -2   8  11  103.31    3.27
  -2   8  10   93.80    3.16
  -2   8  10   94.72    3.21
  -2   8   9    8.67    1.03
  -2   8   9    8.09    1.04
  -2   8   8    5.70    0.90
  -2   8   8    5.57    0.86
  -2   8   7  109.40    3.29
  -2   8   7  110.09    3.32
  -2   8   6   33.99    1.72
  -2   8   6   32.73    1.71
   2  -8  -5   44.05    1.84
  -2   8   5   44.50    1.93
  -2   8   5   42.55    1.91
   2  -8  -4  183.33    4.29
  -2   8   4  193.90    4.76
  -2   8   4  199.92    4.54
  -2   8   4  188.61    4.45
  -2   8   3  306.50    6.06
   2  -8  -3  284.68    5.93
  -2   8   3  310.60    6.07
  -2   8   3  319.07    6.51
  -2   8   3  288.87    6.05
  -2   8   2   22.25    1.27
  -2   8   2   23.09    1.29
  -2   8   2   23.25    1.40
  -2   8   2   22.54    1.31
  -2   8   1  585.19   10.42
  -2   8   1  616.81   10.17
  -2   8   1  605.09   10.15
  -2   8   1  584.45   10.10
  -2   8   0  289.82    5.70
  -2   8  -1   46.57    1.79
  -2   8  -2  394.34    7.21
  -2   8  -2  396.04    7.33
   2  -8   2  375.17    8.33
  -2   8  -3  138.91    3.38
  -2   8  -3  130.47    3.33
  -2   8  -3  136.00    3.44
  -2   8  -4    8.44    0.80
  -2   8  -4    9.12    0.90
  -2   8  -4    8.38    0.83
   2  -8   4    8.51    1.10
  -2   8  -5   69.34    1.92
   2  -8   6    3.50    0.58
  -2   7  14   52.99    1.58
  -2   7  14   41.45    1.49
  -2   7  13    2.53    0.61
  -2   7  12   12.17    1.16
  -2   7  12   12.08    1.16
  -2   7  11    8.88    1.15
  -2   7  11    9.85    1.17
  -2   7  10   52.16    2.49
  -2   7  10   52.30    2.48
  -2   7   9   25.16    1.69
  -2   7   9   25.29    1.69
  -2   7   8   75.30    2.78
  -2   7   8   68.00    2.79
  -2   7   8   72.61    2.75
   2  -7  -7  194.95    4.35
  -2   7   7  199.81    4.81
  -2   7   7  194.91    4.79
   2  -7  -7  206.88    4.50
  -2   7   7  188.02    4.82
  -2   7   6   20.47    1.34
   2  -7  -6   20.15    1.21
  -2   7   6   19.15    1.28
  -2   7   6   18.16    1.28
   2  -7  -6   19.43    1.12
  -2   7   5  341.73    6.62
  -2   7   5  333.86    6.66
  -2   7   5  313.94    6.56
  -2   7   5  330.70    6.82
   2  -7  -5  339.96    6.36
   2  -7  -5  327.86    6.10
  -2   7   4  277.81    5.75
   2  -7  -4  278.95    5.44
  -2   7   4  281.79    5.81
  -2   7   4  271.71    5.77
  -2   7   3   77.04    2.50
  -2   7   3   73.18    2.40
   2  -7  -2 1144.12   18.42
  -2   7   2 1233.38   18.81
  -2   7   2 1251.68   19.19
  -2   7   2 1194.43   18.72
  -2   7   2 1184.43   18.60
  -2   7   1    3.90    0.62
  -2   7   1    6.60    0.85
  -2   7   1    4.33    0.72
   2  -7  -1    4.88    0.74
  -2   7   1    5.15    0.71
  -2   7   0  924.93   14.86
   2  -7   0  922.33   14.84
  -2   7   0  897.98   14.52
  -2   7   0  923.55   14.65
  -2   7   0  906.75   14.49
  -2   7  -1   38.24    1.58
   2  -7   1   34.63    1.69
  -2   7  -2  107.48    2.92
  -2   7  -3    3.03    0.68
   2  -7   3    3.21    1.18
  -2   7  -3    3.73    0.80
  -2   7  -4    0.49    0.63
  -2   7  -4    2.51    0.78
  -2   7  -4    0.82    0.58
  -2   7  -4    0.97    0.73
  -2   7  -5  178.85    3.98
   2  -7   5  191.83    4.72
  -2   7  -5  180.95    4.05
  -2   7  -6   61.44    1.95
  -2   7  -6   60.71    1.90
   2  -7   6   66.27    2.33
   2  -7   7   86.24    2.42
  -2   6  14   63.69    1.97
  -2   6  14   60.06    1.92
   2  -6 -13   40.54    1.51
  -2   6  13   48.56    1.99
   2  -6 -12    0.48    0.56
  -2   6  12    0.27    0.67
   2  -6 -11  197.89    4.50
  -2   6  11  207.71    5.46
  -2   6  10   23.21    1.76
   2  -6 -10   22.29    1.38
   2  -6  -9   38.87    1.84
  -2   6   9   40.09    2.17
   2  -6  -9   38.68    1.74
   2  -6  -8  658.99   11.13
  -2   6   8  609.99   11.58
   2  -6  -7  740.35   12.21
  -2   6   7  739.49   13.07
  -2   6   7  740.89   12.93
  -2   6   6  245.45    5.51
  -2   6   6  259.89    5.59
  -2   6   6  252.58    5.44
   2  -6  -6  262.14    5.07
  -2   6   5   33.58    1.54
   2  -6  -5   35.50    1.42
  -2   6   5   32.39    1.56
  -2   6   5   34.48    1.62
   2  -6  -5   32.55    1.31
  -2   6   4  192.47    4.20
   2  -6  -4  195.06    3.94
  -2   6   4  182.61    4.34
  -2   6   4  185.73    4.26
   2  -6  -4  200.26    3.89
  -2   6   4  180.59    4.22
  -2   6   3  668.11   11.25
  -2   6   3  694.91   11.35
   2  -6  -3  676.55   10.70
  -2   6   2    4.19    0.64
  -2   6   2    4.31    0.61
  -2   6   1  260.87    5.25
  -2   6   1  296.19    5.71
   2  -6  -1  274.09    5.19
  -2   6   1  294.49    5.45
  -2   6   1  266.74    5.36
  -2   6   1  273.38    5.45
  -2   6   0  105.43    2.71
  -2   6   0  107.05    2.82
   2  -6   0  107.31    2.75
  -2   6   0  112.67    2.89
  -2   6  -1 1222.07   18.17
   2  -6   1 1125.54   17.87
  -2   6  -1 1177.72   17.89
  -2   6  -1 1178.82   18.01
  -2   6  -1 1097.35   17.72
  -2   6  -2 1136.85   17.63
  -2   6  -3  142.62    3.48
  -2   6  -3  145.40    3.60
   2  -6   4   36.88    2.26
  -2   6  -4   38.78    1.80
  -2   6  -4   36.56    1.69
  -2   6  -5   75.51    2.48
  -2   6  -5   76.47    2.51
   2  -6   5   77.77    3.03
  -2   6  -5   74.86    2.47
  -2   6  -6  247.38    5.09
   2  -6   6  255.55    5.83
  -2   6  -6  252.90    5.16
  -2   6  -6  252.22    5.05
  -2   6  -7    2.34    0.56
  -2   6  -7    1.95    0.62
   2  -6   7    2.34    0.79
  -2   6  -7    1.59    0.60
   2  -6   8   27.50    1.40
  -2   6  -8   24.06    1.07
   2  -5 -14    3.44    0.57
  -2   5  14    4.82    0.68
   2  -5 -13    7.44    0.77
  -2   5  13    8.70    0.98
   2  -5 -12   35.44    1.56
  -2   5  12   38.18    2.04
  -2   5  11   30.99    1.98
   2  -5 -11   31.43    1.54
  -2   5  10  184.97    5.26
   2  -5 -10  197.38    4.44
  -2   5   9  135.79    4.24
   2  -5  -9  146.30    3.65
   2  -5  -8    9.91    0.93
  -2   5   8    8.81    1.06
   2  -5  -8    9.22    0.93
   2  -5  -7    0.40    0.41
   2  -5  -7    0.38    0.35
  -2   5   7    0.28    0.51
   2  -5  -6   19.43    0.98
  -2   5   6   17.44    1.17
   2  -5  -6   17.85    0.98
   2  -5  -5  208.18    3.98
   2  -5  -5  191.58    3.86
  -2   5   4    0.72    0.42
   2  -5  -4    0.86    0.37
   2  -5  -3    4.33    0.45
  -2   5   3    4.02    0.57
   2  -5  -3    3.17    0.46
  -2   5   3    3.53    0.57
  -2   5   2    2.66    0.49
   2  -5  -2    3.91    0.41
   2  -5  -2    2.74    0.41
  -2   5   2    3.73    0.60
   2  -5  -1  317.18    5.52
   2  -5   1  105.99    2.52
  -2   5  -1  114.33    2.77
   2  -5   2  148.55    3.31
  -2   5  -2  144.56    3.32
  -2   5  -3 1057.52   16.40
  -2   5  -3 1039.45   16.27
  -2   5  -4    4.31    0.71
  -2   5  -4    5.11    0.74
   2  -5   5   78.47    3.14
  -2   5  -5   76.03    2.47
  -2   5  -5   72.19    2.47
  -2   5  -5   79.58    2.58
  -2   5  -5   73.46    2.40
   2  -5   6   86.98    3.17
  -2   5  -6   79.67    2.60
  -2   5  -6   85.61    2.62
  -2   5  -6   81.44    2.66
  -2   5  -6   88.70    2.71
  -2   5  -7    6.69    0.88
   2  -5   7    9.32    1.16
  -2   5  -7    9.21    1.00
  -2   5  -7    7.69    0.88
  -2   5  -7    7.98    0.84
  -2   5  -8   14.24    1.00
   2  -5   8   15.60    1.27
  -2   5  -8   14.08    1.06
   2  -5   9   45.72    1.81
  -2   5  -9   44.06    1.55
  -2   5 -10    3.85    0.45
   2  -5  10    4.20    0.54
  -2   4  14  126.32    3.25
  -2   4  13    2.89    0.76
   2  -4 -13    2.52    0.64
  -2   4  12    6.48    1.06
   2  -4 -12    5.77    0.81
  -2   4  11   24.20    1.74
   2  -4 -11   22.22    1.28
   2  -4 -10    9.56    0.88
   2  -4 -10    9.34    0.90
  -2   4  10    9.61    1.24
   2  -4  -9   15.38    1.04
  -2   4   9   12.12    1.28
   2  -4  -8  408.17    7.11
  -2   4   8  368.31    7.87
   2  -4  -7  539.85    8.72
   2  -4  -6   81.97    2.10
   2  -4  -5   37.32    1.29
   2  -4  -5   38.38    1.29
   2  -4  -4   64.38    1.70
   2  -4  -4   64.41    1.66
   2  -4  -3   24.90    0.91
   2  -4  -3   25.51    0.94
  -2   4   2 2399.66   34.82
  -2   4   2 2358.58   34.73
   2  -4  -2 2403.89   34.22
  -2   4   1 2696.18   38.55
   2  -4  -1 2620.01   38.08
   2  -4  -1 2667.55   37.86
   2  -4   0  292.42    4.97
   2  -4   1  279.54    4.79
   2  -4   2  994.48   14.95
  -2   4  -3   39.22    1.45
  -2   4  -4  139.64    3.24
  -2   4  -4  137.78    3.30
  -2   4  -4  145.79    3.36
  -2   4  -5   44.14    1.76
   2  -4   5   39.03    2.13
  -2   4  -5   40.83    1.70
  -2   4  -5   40.21    1.67
  -2   4  -6  806.11   13.29
  -2   4  -6  796.60   13.21
  -2   4  -6  857.93   13.38
   2  -4   6  806.67   14.06
  -2   4  -6  813.64   13.36
  -2   4  -6  813.74   13.21
  -2   4  -7  148.93    3.66
  -2   4  -7  139.93    3.66
  -2   4  -7  136.80    3.57
   2  -4   7  142.60    4.03
  -2   4  -8  343.52    6.57
  -2   4  -8  329.27    6.55
   2  -4   8  343.72    7.05
   2  -4   9  258.79    5.66
  -2   4  -9  270.56    5.37
  -2   4 -10    1.86    0.56
  -2   4 -10    1.65    0.46
   2  -4  10    1.85    0.61
   2  -4  10    1.67    0.62
  -2   4 -11   72.07    1.78
   2  -3 -14   15.27    0.93
  -2   3  14   17.08    1.14
   2  -3 -13  365.50    6.70
  -2   3  13  371.22    7.43
  -2   3  12  697.46   12.55
  -2   3  11    0.25    0.69
   2  -3 -10  173.82    3.86
  -2   3  10  173.71    4.81
  -2   3  10  179.67    5.10
   2  -3  -9  112.30    2.77
  -2   3   9  104.99    3.71
  -2   3   9  101.83    3.48
  -2   3   9  118.28    3.72
  -2   3   8   13.66    1.25
  -2   3   8   12.08    1.16
  -2   3   8   11.19    1.10
   2  -3  -8   11.22    0.78
   2  -3  -8   11.83    0.83
  -2   3   7   17.32    1.27
   2  -3  -7   17.81    0.91
   2  -3  -6  396.11    6.67
   2  -3  -6  437.57    6.90
   2  -3  -5   60.15    1.62
   2  -3  -4  525.62    8.26
   2  -3  -3   25.54    0.90
   2  -3  -2   27.51    0.82
   2  -3  -1  504.60    7.88
  -2   3   1  519.14    8.20
   2  -3  -1  517.50    7.72
  -2   3   1  524.21    8.26
  -2   3   0  720.35   11.28
   2  -3   0  717.30   10.88
   2  -3   0  743.43   10.67
   2  -3   1  599.99    9.09
   2  -3   2 1335.70   19.39
   2  -3   3  810.94   12.53
  -2   3  -3  877.80   12.94
  -2   3  -4    1.73    0.50
  -2   3  -4    1.98    0.49
  -2   3  -5   51.17    1.80
  -2   3  -5   45.51    1.72
  -2   3  -5   47.91    1.65
  -2   3  -5   48.55    1.74
  -2   3  -5   47.98    1.70
  -2   3  -6    9.36    0.90
   2  -3   6    9.39    1.08
  -2   3  -6    9.88    1.01
  -2   3  -6    8.40    0.81
  -2   3  -6    8.71    0.86
  -2   3  -6    8.58    0.86
  -2   3  -6   10.07    0.96
   2  -3   7  556.88   10.14
  -2   3  -7  584.10    9.74
  -2   3  -7  552.50    9.70
  -2   3  -7  545.89    9.52
  -2   3  -7  549.57    9.64
  -2   3  -7  550.78    9.79
   2  -3   8   53.63    2.29
  -2   3  -8   57.16    2.12
  -2   3  -8   55.78    2.19
  -2   3  -9  339.40    6.70
   2  -3   9  334.58    6.97
   2  -3  10    1.24    0.70
  -2   3 -10    0.79    0.58
   2  -3  11    7.85    0.85
  -2   3 -11    6.77    0.72
   2  -2 -14  171.85    3.53
  -2   2  14  191.20    4.17
  -2   2  13  112.78    3.37
   2  -2 -13  110.76    2.82
   2  -2 -12   77.61    2.39
  -2   2  12   77.32    2.89
   2  -2 -11   32.64    1.50
  -2   2  11   34.06    1.95
  -2   2  10   83.40    3.04
   2  -2 -10   80.17    2.33
  -2   2   9  224.76    5.46
   2  -2  -9  220.15    4.38
   2  -2  -8   81.40    2.12
  -2   2   8   84.85    2.98
   2  -2  -8   82.07    2.07
   2  -2  -7    7.25    0.57
   2  -2  -7    7.04    0.52
   2  -2  -6    7.54    0.56
   2  -2  -6    8.46    0.55
   2  -2  -5   25.84    0.99
   2  -2  -5   29.49    0.92
   2  -2  -4  907.66   13.52
   2  -2  -4  970.08   13.93
   2  -2  -3  304.93    4.57
   2  -2  -3  305.46    4.97
  -2   2   2 1077.50   15.97
   2  -2  -1 4155.07   59.51
  -2   2   1 4298.82   59.74
   2  -2   0    1.40    0.22
  -2   2   0    1.42    0.31
   2  -2   0    1.89    0.17
   2  -2   1  254.59    3.81
   2  -2   1  271.41    4.11
  -2   2  -2   41.00    0.97
   2  -2   2   40.96    0.97
  -2   2  -3  483.60    7.82
   2  -2   3  506.59    7.62
  -2   2  -4  347.20    5.80
  -2   2  -4  346.28    5.81
  -2   2  -5  395.85    6.70
  -2   2  -5  370.22    6.59
  -2   2  -6    6.09    0.66
  -2   2  -6    6.31    0.71
  -2   2  -6    9.32    0.78
   2  -2   6    7.93    0.90
  -2   2  -6    5.68    0.65
  -2   2  -6    5.45    0.67
  -2   2  -6    6.32    0.72
  -2   2  -6   10.71    0.93
  -2   2  -6    5.07    0.66
  -2   2  -7    0.16    0.49
   2  -2   7    0.39    0.59
  -2   2  -7    0.47    0.51
  -2   2  -7    1.00    0.71
  -2   2  -7    0.66    0.45
  -2   2  -7    0.15    0.54
  -2   2  -7    0.90    0.54
  -2   2  -7    0.80    0.56
  -2   2  -8 1005.93   16.31
   2  -2   8  996.36   16.50
  -2   2  -8  986.52   16.10
  -2   2  -9   93.11    2.90
   2  -2   9   89.64    2.93
   2  -2  10   28.86    1.74
  -2   2 -11  214.50    4.29
   2  -2  12   62.69    2.06
  -2   2 -12   61.48    1.85
   2  -1 -14    4.20    0.50
  -2   1  14    5.18    0.68
   2  -1 -13   22.74    1.14
  -2   1  13   24.94    1.50
  -2   1  12    1.80    0.78
   2  -1 -12    1.75    0.62
  -2   1  11   34.79    2.00
  -2   1  11   34.78    1.97
   2  -1 -11   36.61    1.59
   2  -1 -10   56.04    1.91
  -2   1  10   54.41    2.48
  -2   1  10   55.63    2.55
   2  -1 -10   47.73    1.76
  -2   1  10   55.98    2.41
   2  -1  -9    0.57    0.54
   2  -1  -9    0.97    0.47
  -2   1   9    2.12    0.69
  -2   1   9    1.81    0.74
  -2   1   9    1.78    0.71
  -2   1   8  313.98    6.61
  -2   1   8  321.23    6.77
   2  -1  -8  308.83    5.40
   2  -1  -8  293.03    5.28
  -2   1   8  286.73    6.21
   2  -1  -7  494.94    7.76
  -2   1   7  462.73    9.12
   2  -1  -6  178.06    3.31
   2  -1  -6  184.91    3.27
  -2   1   6  175.27    4.25
  -2   1   5 1867.85   27.58
   2  -1  -5 1891.36   26.55
   2  -1  -4    8.06    0.52
   2  -1  -4    9.16    0.48
   2  -1  -3 1200.17   17.30
   2  -1  -3 1138.39   17.06
   2  -1  -2 1981.98   28.29
   2  -1  -1  924.17   13.28
  -2   1   1  904.03   13.46
  -2   1   0  675.77    9.73
   2  -1   0  640.31    9.55
   2  -1   1   54.32    1.08
  -2   1  -2 1101.27   15.90
   2  -1   2 1134.46   15.80
  -2   1  -3   40.37    1.08
   2  -1   3   39.14    0.85
  -2   1  -4   17.68    0.81
  -2   1  -4   16.93    0.82
  -2   1  -4   16.48    0.80
  -2   1  -5    3.52    0.52
  -2   1  -5    3.21    0.44
  -2   1  -6   41.97    1.49
  -2   1  -6   46.02    1.55
  -2   1  -7   59.29    1.89
  -2   1  -7   58.74    1.93
  -2   1  -7   59.95    1.91
  -2   1  -7   59.38    1.84
  -2   1  -7   56.43    1.86
  -2   1  -7   56.15    1.85
  -2   1  -7   60.88    2.09
  -2   1  -8  197.90    4.30
  -2   1  -8  206.14    4.27
  -2   1  -8  207.16    4.59
  -2   1  -8  200.03    4.37
  -2   1  -9  683.02   11.58
  -2   1  -9  719.69   11.91
  -2   1  -9  716.48   12.01
  -2   1 -10  236.55    5.09
   2  -1  10  244.65    5.81
  -2   1 -10  253.22    5.43
  -2   1 -11   26.87    1.30
  -2   1 -11   28.45    1.55
   2  -1  11   29.26    1.73
  -2   1 -12   35.29    1.52
   2  -1  12   35.22    1.71
  -2   1 -13    0.34    0.37
   2  -1  13    0.37    0.44
  -2   0  14  174.21    3.62
  -2   0  13    5.15    0.80
   2   0 -13    4.07    0.57
   2   0 -12   29.47    1.33
  -2   0  12   32.33    1.84
  -2   0  12   33.90    1.92
  -2   0  11  307.57    6.95
   2   0 -11  314.69    5.98
  -2   0  10  162.46    4.64
  -2   0  10  156.78    4.39
   2   0 -10  167.77    3.76
  -2   0   9    5.52    0.97
  -2   0   9    4.37    0.86
   2   0  -9    4.58    0.63
   2   0  -9    4.54    0.71
  -2   0   8  652.22   11.76
  -2   0   8  733.67   12.45
   2   0  -8  677.35   10.93
   2   0  -8  721.13   11.04
  -2   0   8  684.16   12.18
   2   0  -7  504.65    8.22
  -2   0   7  539.72    9.65
  -2   0   6   95.34    2.86
   2   0  -6  100.57    2.12
  -2   0   5  238.34    4.83
   2   0  -5  251.32    4.02
  -2   0   4   23.90    1.09
   2   0  -4   22.07    0.68
  -2   0   4   24.59    0.77
  -2   0   3   57.99    1.45
  -2   0   3   58.62    1.56
  -2   0   3   59.99    1.36
  -2   0   2  881.01   13.48
  -2   0   2  884.02   13.56
  -2   0   1 6870.46   96.64
  -2   0   1 6890.44   96.75
  -2   0   0 1315.73   18.58
  -2   0   0 1319.40   18.56
  -2   0   0 1260.87   18.45
   2   0   1 1014.17   14.19
  -2   0  -1  977.75   14.32
  -2   0  -1  981.10   14.45
  -2   0  -2 1168.60   17.24
   2   0   2 1203.74   16.86
  -2   0  -2 1216.62   17.25
  -2   0  -2 1165.94   17.06
  -2   0  -3  259.89    3.88
  -2   0  -3  291.36    4.36
   2   0   3  270.78    3.91
  -2   0  -3  298.67    4.51
  -2   0  -4    2.93    0.40
  -2   0  -4    1.87    0.34
  -2   0  -4    1.84    0.38
  -2   0  -5   10.23    0.65
  -2   0  -5    9.16    0.69
  -2   0  -6    7.98    0.60
  -2   0  -6    4.72    0.60
  -2   0  -7    7.83    0.74
  -2   0  -7    7.44    0.67
  -2   0  -7    8.31    0.85
  -2   0  -7    9.54    0.70
  -2   0  -8  152.99    3.52
  -2   0  -8  148.07    3.47
  -2   0  -8  157.76    3.40
  -2   0  -8  149.30    3.63
  -2   0  -9   81.47    2.46
  -2   0  -9   78.16    2.42
   2   0   9   82.62    2.86
  -2   0  -9   78.95    2.57
   2   0  10  122.27    3.70
  -2   0 -10  117.43    3.15
  -2   0 -10  121.20    3.17
  -2   0 -10  122.72    3.37
  -2   0 -11  189.13    4.18
   2   0  11  194.34    5.00
  -2   0 -11  195.93    4.55
   2   0  12   69.10    2.62
  -2   0 -12   66.84    2.26
   2   0  13    4.81    0.75
  -2   0 -13    4.60    0.62
  -2  -1  13   95.36    2.67
  -2  -1  12   82.92    2.93
  -2  -1  12   77.12    2.72
  -2  -1  11   67.33    2.84
   2   1 -11   60.37    1.93
  -2  -1  11   62.61    2.60
   2   1 -10  337.60    6.18
  -2  -1  10  336.58    7.20
   2   1 -10  325.41    6.25
  -2  -1  10  340.29    7.57
  -2  -1   9  143.01    3.99
  -2  -1   9  145.08    4.28
  -2  -1   9  148.08    4.24
   2   1  -9  140.12    3.33
   2   1  -9  148.20    3.32
   2   1  -8    3.95    0.62
  -2  -1   8    2.00    0.73
   2   1  -8    2.64    0.57
  -2  -1   7   56.59    2.22
  -2  -1   7   59.58    2.26
   2   1  -7   60.53    1.74
   2   1  -7   60.94    1.75
   2   1  -6   30.81    1.17
  -2  -1   5  377.82    6.17
   2   1  -5  379.65    6.10
  -2  -1   4   27.21    0.82
  -2  -1   4   29.42    1.03
   2   1  -4   29.56    0.80
  -2  -1   3  113.30    2.12
  -2  -1   3  102.07    2.15
   2   1  -3  104.89    1.84
  -2  -1   3  112.85    2.43
  -2  -1   2    8.48    0.47
   2   1  -2    7.38    0.27
  -2  -1   2    7.54    0.50
  -2  -1   1 6817.12   96.52
  -2  -1   1 6565.95   96.70
  -2  -1   1 7284.77   96.97
  -2  -1   1 7164.91   96.82
  -2  -1   0 5684.14   80.27
  -2  -1   0 5744.85   80.19
  -2  -1  -1 8800.41  123.78
  -2  -1  -1 8800.67  123.82
  -2  -1  -1 8966.89  124.13
  -2  -1  -1 8863.83  123.97
  -2  -1  -2 3986.13   54.02
  -2  -1  -2 3857.15   53.69
  -2  -1  -2 3848.54   53.95
  -2  -1  -3   38.96    1.14
  -2  -1  -3   47.14    0.93
  -2  -1  -4   89.60    1.87
  -2  -1  -4   86.44    1.52
  -2  -1  -5  174.21    3.22
  -2  -1  -5  167.98    2.97
  -2  -1  -5  175.99    3.33
  -2  -1  -6  342.39    6.11
  -2  -1  -6  364.56    5.98
  -2  -1  -7    9.84    0.67
  -2  -1  -7    9.76    0.74
  -2  -1  -8    0.63    0.37
  -2  -1  -8    0.38    0.53
  -2  -1  -8    0.77    0.46
  -2  -1  -8    1.49    0.50
  -2  -1  -8    0.28    0.37
  -2  -1  -9  429.68    7.51
  -2  -1  -9  417.67    7.23
  -2  -1  -9  423.61    7.25
  -2  -1  -9  401.23    7.56
   2   1   9  401.86    7.94
  -2  -1  -9  400.33    7.33
  -2  -1  -9  392.95    7.33
   2   1  10  513.97    9.73
  -2  -1 -10  511.87    9.15
  -2  -1 -10  537.64    9.17
  -2  -1 -10  523.09    9.29
   2   1  11  125.88    3.87
  -2  -1 -11  126.82    3.34
  -2  -1 -11  130.41    3.49
  -2  -1 -12  284.33    5.65
   2   1  12  296.00    6.51
  -2  -1 -12  295.68    5.90
   2   1  13   24.89    1.47
  -2  -1 -13   22.54    1.19
  -2  -1 -14   44.42    1.34
   2   1  14   50.39    1.73
  -2  -2  13   24.88    1.14
  -2  -2  12  132.56    3.61
  -2  -2  12  129.55    3.45
  -2  -2  11  340.22    7.00
  -2  -2  11  341.90    7.27
  -2  -2  10   31.15    1.86
  -2  -2  10   31.43    2.00
   2   2 -10   29.32    1.28
  -2  -2   9  102.96    3.43
  -2  -2   9   98.76    3.47
   2   2  -9   98.70    2.55
   2   2  -8  507.39    8.66
  -2  -2   8  502.38    9.74
   2   2  -8  515.90    8.53
  -2  -2   7   43.74    1.96
  -2  -2   7   44.30    1.91
   2   2  -7   47.99    1.54
   2   2  -7   46.51    1.55
   2   2  -6  137.26    2.99
  -2  -2   6  137.80    3.10
   2   2  -5 1356.18   20.25
  -2  -2   5 1373.01   20.38
   2   2  -5 1368.27   19.91
   2   2  -4  864.66   12.50
  -2  -2   4  877.87   12.99
  -2  -2   3   52.35    1.39
  -2  -2   3   49.36    1.31
  -2  -2   2 1251.59   17.96
  -2  -2   2 1225.79   18.04
  -2  -2   1 1441.21   20.65
  -2  -2   1 1418.62   20.36
  -2  -2   0 2583.44   34.36
  -2  -2   0 2566.87   34.15
  -2  -2   0 2616.94   34.53
  -2  -2  -1  331.76    5.26
  -2  -2  -1  322.59    4.95
  -2  -2  -2  983.99   14.03
  -2  -2  -2  932.93   13.72
  -2  -2  -2  963.99   13.81
  -2  -2  -2  950.09   13.85
  -2  -2  -3 5799.28   79.76
  -2  -2  -3 5636.56   79.76
  -2  -2  -3 5620.03   79.71
  -2  -2  -3 5602.00   79.56
  -2  -2  -4 1013.84   14.57
  -2  -2  -4 1031.68   14.85
  -2  -2  -4  979.19   14.56
  -2  -2  -5  835.84   11.22
  -2  -2  -5  746.74   11.41
  -2  -2  -6   40.27    1.30
  -2  -2  -6   42.69    1.23
  -2  -2  -7  103.15    2.55
  -2  -2  -7  103.20    2.42
  -2  -2  -8   42.37    1.60
  -2  -2  -8   41.08    1.60
   2   2   8   43.02    1.88
  -2  -2  -8   43.41    1.73
  -2  -2  -8   44.19    1.51
  -2  -2  -9  458.96    8.06
   2   2   9  466.20    8.86
  -2  -2  -9  490.31    8.29
  -2  -2  -9  458.33    7.95
  -2  -2  -9  439.19    8.01
  -2  -2  -9  472.20    8.28
  -2  -2  -9  457.95    8.33
  -2  -2  -9  470.45    7.94
  -2  -2 -10  180.37    4.05
  -2  -2 -10  192.79    4.41
  -2  -2 -10  191.87    4.05
  -2  -2 -10  179.22    4.21
  -2  -2 -10  188.33    4.35
   2   2  10  184.20    4.75
   2   2  11  106.34    3.43
  -2  -2 -11  107.22    3.08
  -2  -2 -11  100.97    2.94
  -2  -2 -12    3.91    0.72
  -2  -2 -12    3.55    0.75
   2   2  12    4.73    0.98
  -2  -2 -13   82.04    2.39
   2   2  13   87.58    2.90
  -2  -2 -14   97.54    2.32
  -2  -2 -14  104.15    2.53
  -2  -3  12    2.53    0.60
  -2  -3  12    2.40    0.65
   2   3 -12    2.32    0.45
  -2  -3  11    3.53    0.80
   2   3 -11    3.11    0.59
  -2  -3  11    3.58    0.87
  -2  -3  10  106.88    3.36
  -2  -3  10  106.86    3.60
  -2  -3   9  176.12    4.91
   2   3  -8    0.42    0.50
  -2  -3   8    2.24    0.88
  -2  -3   8    1.13    0.72
  -2  -3   7   39.73    1.99
   2   3  -7   41.30    1.51
  -2  -3   7   41.78    1.97
   2   3  -7   41.98    1.44
   2   3  -6   60.64    1.85
   2   3  -6   59.13    1.94
  -2  -3   6   60.04    1.93
  -2  -3   5   20.98    1.10
   2   3  -5   22.17    0.93
   2   3  -5   19.95    1.04
  -2  -3   4  302.58    5.55
   2   3  -4  322.19    5.24
  -2  -3   3  140.14    2.80
  -2  -3   3  148.31    2.89
  -2  -3   2 1019.40   14.76
  -2  -3   2  971.61   14.83
  -2  -3   2 1013.16   15.22
  -2  -3   1 4733.97   70.45
  -2  -3   1 4852.68   70.68
  -2  -3   0 3885.99   53.76
   2   3   0 3714.15   53.28
  -2  -3   0 3868.50   53.84
  -2  -3  -1 1197.30   17.51
  -2  -3  -2   15.77    0.58
  -2  -3  -2   14.25    0.65
  -2  -3  -3   63.52    1.40
  -2  -3  -3   66.36    1.49
  -2  -3  -4   28.35    1.02
  -2  -3  -4   25.49    0.76
  -2  -3  -4   26.95    0.84
  -2  -3  -5    6.79    0.48
  -2  -3  -5    6.07    0.54
  -2  -3  -5    7.10    0.47
  -2  -3  -6  207.88    4.30
  -2  -3  -6  271.31    4.34
  -2  -3  -7  216.31    3.86
  -2  -3  -7  175.03    3.98
  -2  -3  -8   60.64    1.95
  -2  -3  -9   36.07    1.55
  -2  -3  -9   31.99    1.52
  -2  -3  -9   32.35    1.38
  -2  -3  -9   30.04    1.36
  -2  -3  -9   33.34    1.60
   2   3   9   38.10    1.99
  -2  -3 -10  305.05    6.21
  -2  -3 -10  311.75    5.85
  -2  -3 -10  305.66    6.17
  -2  -3 -10  300.22    5.94
   2   3  10  311.39    6.86
  -2  -3 -11    7.46    0.97
   2   3  11    6.41    1.01
  -2  -3 -11    6.63    0.82
  -2  -3 -11    6.84    0.80
  -2  -3 -12  475.29    8.57
   2   3  12  489.80    9.50
  -2  -3 -13   79.27    2.31
   2   3  13   87.78    2.96
   2   3  14    0.44    0.57
  -2  -3 -14    0.87    0.47
  -2  -3 -15  286.16    5.02
   2   3  15  322.17    5.49
  -2  -4  11    1.82    0.68
  -2  -4  11    2.03    0.63
   2   4 -11    1.88    0.51
  -2  -4  10  120.72    3.40
  -2  -4  10  115.50    3.59
   2   4 -10  116.36    2.96
  -2  -4   9   60.95    2.68
  -2  -4   8   83.12    3.15
  -2  -4   8   82.61    2.96
   2   4  -7  149.49    3.77
   2   4  -7  149.58    3.40
  -2  -4   6    4.83    0.65
   2   4  -6    4.71    0.75
  -2  -4   6    6.70    0.89
   2   4  -6    5.17    0.68
  -2  -4   5   39.58    1.81
  -2  -4   5   38.39    1.59
   2   4  -5   39.63    1.50
   2   4  -5   43.51    1.47
  -2  -4   5   40.46    1.81
   2   4  -4  228.24    4.20
  -2  -4   4  233.12    4.53
  -2  -4   3   37.94    1.28
  -2  -4   3   34.81    1.22
  -2  -4   2 4458.20   65.22
  -2  -4   2 4454.01   64.86
  -2  -4   1  160.18    3.32
  -2  -4   1  164.06    2.95
   2   4   0    1.71    0.24
  -2  -4   0    2.45    0.35
   2   4   1  345.83    5.27
  -2  -4  -1  347.92    5.78
  -2  -4  -2  475.21    7.58
  -2  -4  -2  478.77    7.43
  -2  -4  -3  302.91    4.94
  -2  -4  -3  289.52    4.73
  -2  -4  -4  291.44    4.80
  -2  -4  -4  297.74    4.88
  -2  -4  -5    8.80    0.58
  -2  -4  -6  173.95    3.44
  -2  -4  -7   19.02    0.96
   2   4   8   42.77    2.04
  -2  -4  -8   45.88    1.73
  -2  -4  -8   39.50    1.55
  -2  -4  -8   45.90    1.60
   2   4   9    7.52    1.05
  -2  -4  -9    6.85    0.85
  -2  -4  -9    8.41    0.91
  -2  -4  -9    7.30    0.75
  -2  -4 -10  230.84    5.00
  -2  -4 -10  229.40    5.11
   2   4  10  250.48    6.06
  -2  -4 -10  227.60    5.11
   2   4  10  246.20    5.45
  -2  -4 -11   97.70    2.96
  -2  -4 -11   89.55    2.71
  -2  -4 -11   91.28    2.75
   2   4  11   98.16    3.45
  -2  -4 -12  100.77    2.83
   2   4  12  107.52    3.55
  -2  -4 -12   98.44    2.75
   2   4  13   27.94    1.68
  -2  -4 -13   25.31    1.33
   2   4  14   26.03    1.46
  -2  -4 -14   23.62    1.15
  -2  -4 -15   50.35    1.45
   2   4  15   57.73    1.80
   2   5 -11  200.09    3.75
  -2  -5  11  212.20    4.27
  -2  -5  11  207.83    4.03
  -2  -5  10  206.05    4.82
   2   5 -10  211.31    4.21
  -2  -5  10  218.77    4.67
  -2  -5   9    8.53    1.14
  -2  -5   8   10.56    1.16
  -2  -5   7   16.99    1.45
   2   5  -7   14.15    1.14
  -2  -5   6  134.13    3.66
   2   5  -6  127.68    3.36
  -2  -5   6  134.27    3.91
   2   5  -5   19.70    1.21
  -2  -5   5   20.85    1.45
  -2  -5   5   19.67    1.40
   2   5  -5   17.32    1.01
  -2  -5   4    7.56    0.75
   2   5  -4    8.26    0.74
   2   5  -4    7.61    0.71
  -2  -5   4    7.53    0.90
  -2  -5   4    8.88    0.94
  -2  -5   3    7.05    0.62
  -2  -5   2  277.56    5.28
  -2  -5   2  290.45    5.77
  -2  -5   1  999.77   15.00
  -2  -5   1  986.71   15.54
  -2  -5   1 1010.70   15.33
  -2  -5   0  387.84    6.30
   2   5   0  377.95    6.16
  -2  -5  -1  175.15    3.29
   2   5   1  172.92    3.22
  -2  -5  -1  164.47    3.49
  -2  -5  -2   16.63    0.86
  -2  -5  -3   41.19    1.39
  -2  -5  -3   39.37    1.24
  -2  -5  -4 1012.75   15.28
  -2  -5  -4 1003.29   15.15
  -2  -5  -5  229.66    4.21
  -2  -5  -5  225.47    4.22
  -2  -5  -6  235.17    4.47
   2   5   7  417.90    7.80
  -2  -5  -7  491.98    7.90
   2   5   8    0.58    0.59
  -2  -5  -8    1.21    0.60
  -2  -5  -8    1.44    0.46
   2   5   8    1.27    0.48
  -2  -5  -9  274.01    5.64
   2   5   9  263.00    6.45
  -2  -5  -9  252.25    5.59
  -2  -5  -9  252.99    5.71
  -2  -5 -10  190.43    4.42
   2   5  10  202.77    5.49
   2   5  11    4.83    1.06
  -2  -5 -11    4.30    0.82
  -2  -5 -11    5.68    0.86
  -2  -5 -12   50.50    1.98
   2   5  12   56.24    2.60
  -2  -5 -12   49.85    2.04
   2   5  13   20.68    1.51
  -2  -5 -13   17.92    1.14
  -2  -5 -14    0.68    0.44
   2   5  14    0.30    0.58
   2   5  15   71.76    2.06
  -2  -5 -15   62.55    1.66
   2   6 -10  127.25    2.70
  -2  -6  10  134.29    2.97
  -2  -6  10  133.84    3.17
  -2  -6   9   39.22    1.97
  -2  -6   8   39.55    1.87
  -2  -6   7   73.45    2.82
  -2  -6   7   73.56    2.92
   2   6  -6  126.68    3.41
  -2  -6   6  125.13    3.92
  -2  -6   5   26.70    1.77
  -2  -6   5   27.12    1.73
   2   6  -5   29.55    1.52
  -2  -6   4    9.76    1.16
   2   6  -4    9.52    0.96
   2   6  -4    9.81    0.93
  -2  -6   4    9.36    1.14
  -2  -6   3   66.61    2.43
  -2  -6   3   63.71    2.03
   2   6  -3   59.03    1.99
   2   6  -3   63.42    2.01
  -2  -6   3   61.60    2.19
  -2  -6   2  323.40    6.52
   2   6  -2  309.65    5.76
  -2  -6   2  319.80    5.78
   2   6  -2  323.28    5.84
  -2  -6   2  332.07    6.62
  -2  -6   1   26.15    1.11
  -2  -6   1   24.31    1.24
  -2  -6   1   26.58    1.47
  -2  -6   0  216.89    4.47
  -2  -6   0  218.66    4.16
  -2  -6  -1 1440.91   21.47
  -2  -6  -1 1439.01   21.10
   2   6   1 1389.43   21.01
   2   6   2  861.89   13.64
  -2  -6  -2  937.62   14.03
  -2  -6  -3  636.90   10.31
  -2  -6  -4    0.94    0.49
  -2  -6  -5   65.27    1.96
  -2  -6  -5   66.67    1.91
  -2  -6  -6   10.52    0.79
   2   6   7    5.06    0.70
   2   6   7    5.63    0.78
  -2  -6  -7    7.21    0.72
   2   6   8  119.91    3.67
  -2  -6  -8  123.08    3.24
   2   6   8  113.85    3.40
  -2  -6  -8  112.83    2.94
  -2  -6  -8  122.14    3.21
  -2  -6  -8  126.42    3.21
  -2  -6  -9  152.75    3.92
   2   6   9  149.90    4.56
  -2  -6  -9  154.94    4.02
  -2  -6  -9  162.57    3.87
  -2  -6 -10   11.54    0.95
  -2  -6 -10    7.90    1.01
   2   6  10   10.36    1.40
  -2  -6 -11   96.27    3.20
  -2  -6 -11  100.46    3.05
   2   6  12   15.54    1.52
   2   6  12   14.10    1.15
  -2  -6 -12   13.32    1.12
   2   6  13  143.31    4.04
  -2  -6 -13  127.44    3.30
   2   6  14   12.49    1.04
  -2  -6 -14    9.43    0.76
   2   6  15   62.59    1.82
  -2  -6 -15   41.21    1.32
  -2  -7   9   19.59    0.99
  -2  -7   8   15.61    1.17
  -2  -7   8   18.10    1.36
  -2  -7   7   29.45    1.78
  -2  -7   7   30.53    1.74
   2   7  -6   52.79    2.16
   2   7  -6   50.89    1.89
   2   7  -5    3.10    0.86
  -2  -7   5    4.11    1.05
   2   7  -4  632.70   10.75
  -2  -7   4  603.46   11.40
  -2  -7   4  626.60   11.43
   2   7  -4  613.76   10.67
   2   7  -3 1855.96   27.83
  -2  -7   3 1862.64   28.39
   2   7  -3 1822.01   27.83
  -2  -7   3 1843.46   28.68
  -2  -7   2   59.48    1.97
   2   7  -2   56.94    2.01
  -2  -7   2   60.64    2.43
   2   7  -2   61.44    2.07
  -2  -7   1  112.81    3.13
  -2  -7   1  126.58    2.99
   2   7  -1  112.52    2.94
  -2  -7   1  118.44    3.44
   2   7  -1  118.67    2.95
  -2  -7   1  126.69    3.71
  -2  -7   0   86.20    2.75
  -2  -7   0   85.04    2.25
   2   7   0   84.33    2.33
  -2  -7   0   80.63    2.57
  -2  -7  -1   75.14    2.76
  -2  -7  -1   63.38    2.07
   2   7   2   88.31    2.36
  -2  -7  -2   94.08    2.45
  -2  -7  -2   93.99    2.68
  -2  -7  -3  252.35    5.14
  -2  -7  -4 1319.28   20.84
  -2  -7  -4 1394.47   20.67
   2   7   5    7.84    0.81
  -2  -7  -5    7.12    0.85
   2   7   5    9.01    0.88
  -2  -7  -6   82.97    2.38
   2   7   6   79.92    2.64
   2   7   6   78.03    2.52
  -2  -7  -6   77.72    2.16
  -2  -7  -7  251.98    5.10
   2   7   7  238.47    5.55
   2   7   7  243.61    5.40
  -2  -7  -7  246.55    4.87
  -2  -7  -8   57.04    2.06
  -2  -7  -8   57.42    2.12
   2   7   8   52.42    2.25
   2   7   8   52.95    2.35
  -2  -7  -8   52.25    1.85
  -2  -7  -9  393.27    7.48
  -2  -7  -9  393.59    7.40
  -2  -7 -10    0.99    0.51
   2   7  10    1.03    0.67
   2   7  10    0.85    0.85
  -2  -7 -10    1.14    0.63
   2   7  11   38.04    2.01
   2   7  11   43.00    2.51
   2   7  12   46.61    2.04
   2   7  12   49.33    2.53
   2   7  13    3.52    0.62
   2   7  13    3.46    0.86
  -2  -7 -13    3.03    0.61
   2   7  14    9.46    0.93
  -2  -7 -14    6.55    0.60
   2   7  15   17.72    0.93
  -2  -8   8    4.07    0.59
   2   8  -8    3.99    0.42
  -2  -8   7   17.14    1.20
  -2  -8   7   16.61    1.11
   2   8  -6    7.86    0.83
  -2  -8   6    7.56    1.02
  -2  -8   6    7.71    0.99
   2   8  -6    7.16    0.74
   2   8  -5   82.29    2.51
  -2  -8   5   88.36    3.01
   2   8  -5   88.36    2.72
  -2  -8   4    1.91    0.81
  -2  -8   4    2.39    0.91
   2   8  -4    2.53    0.72
  -2  -8   3   43.28    2.17
   2   8  -3   48.08    1.96
   2   8  -3   44.58    1.92
  -2  -8   3   46.36    2.26
   2   8  -2   38.90    1.72
  -2  -8   2   41.63    1.94
   2   8  -2   40.29    1.77
  -2  -8   2   39.45    2.04
   2   8  -1  920.90   14.75
  -2  -8   1  939.75   15.42
   2   8  -1  903.98   14.65
  -2  -8   1  905.02   15.80
  -2  -8   0 1066.64   18.25
  -2  -8   0 1219.58   19.06
   2   8   0 1167.49   17.86
   2   8   0 1131.84   17.78
  -2  -8   0 1143.12   17.71
  -2  -8  -1    2.62    0.50
  -2  -8  -1    2.47    0.52
  -2  -8  -1    3.12    0.76
   2   8   1    2.82    0.59
   2   8   2    5.83    0.73
  -2  -8  -2    5.93    0.68
  -2  -8  -2    7.15    0.93
  -2  -8  -2    6.30    0.67
  -2  -8  -3    4.71    0.64
  -2  -8  -3    4.52    0.61
  -2  -8  -3    4.60    0.63
   2   8   3    4.64    0.71
   2   8   3    5.88    0.69
  -2  -8  -3    5.04    0.89
   2   8   4   44.64    1.78
  -2  -8  -4   51.72    1.72
   2   8   4   46.95    1.95
  -2  -8  -4   49.77    2.10
  -2  -8  -5    2.48    0.48
  -2  -8  -5    0.76    0.43
   2   8   5    1.36    0.57
  -2  -8  -5    1.52    0.69
  -2  -8  -6  148.05    3.43
   2   8   6  148.49    3.96
   2   8   6  155.35    3.97
   2   8   7  201.50    4.85
  -2  -8  -7  197.95    4.29
   2   8   7  196.30    4.90
   2   8   8   38.17    2.03
   2   8   8   39.43    1.97
  -2  -8  -8   40.70    1.63
   2   8   9  116.45    3.84
   2   8   9  109.82    3.63
   2   8  10    1.28    0.84
   2   8  10    1.54    0.74
   2   8  11   64.08    2.97
   2   8  11   59.93    2.53
   2   8  12   68.46    2.89
   2   8  12   60.88    2.36
   2   8  13  109.30    2.91
   2   8  13  121.99    3.54
   2   8  14    6.63    0.76
  -2  -9   6    0.67    0.53
  -2  -9   6    0.16    0.52
  -2  -9   5    5.63    0.86
   2   9  -5    5.49    0.71
   2   9  -5    5.39    0.67
  -2  -9   4   41.22    1.88
   2   9  -4   37.49    1.67
  -2  -9   4   37.30    1.83
  -2  -9   3  117.54    3.64
   2   9  -3  130.49    3.38
  -2  -9   3  121.99    3.55
   2   9  -2   11.83    1.08
  -2  -9   2   12.74    1.21
   2   9  -2   12.64    1.10
  -2  -9   2   13.76    1.27
   2   9  -1  206.24    4.52
   2   9  -1  203.96    4.64
  -2  -9   1  193.70    4.84
   2   9   0 1412.15   21.85
   2   9   0 1432.39   22.03
  -2  -9  -1   35.49    1.51
   2   9   1   35.09    1.59
  -2  -9  -1   31.15    1.78
   2   9   2    4.90    0.75
  -2  -9  -2    5.76    0.68
  -2  -9  -2    3.80    0.95
  -2  -9  -2    5.26    0.72
  -2  -9  -2    4.27    0.92
  -2  -9  -3   20.79    1.53
  -2  -9  -3   21.46    1.19
   2   9   3   21.36    1.33
  -2  -9  -3   22.09    1.27
  -2  -9  -3   20.50    1.20
  -2  -9  -4  117.44    3.09
  -2  -9  -4  128.82    3.37
  -2  -9  -4  126.13    3.18
   2   9   4  124.09    3.48
  -2  -9  -4  122.51    3.73
   2   9   5   83.20    2.77
  -2  -9  -5   81.18    2.45
  -2  -9  -5   77.32    2.38
  -2  -9  -5   79.36    2.90
  -2  -9  -6    4.10    0.65
  -2  -9  -6    3.25    0.58
   2   9   6    3.81    0.81
  -2  -9  -7    8.82    0.81
  -2  -9  -7    7.28    0.78
   2   9   7    7.87    0.99
   2   9   8   10.46    1.12
  -2  -9  -8   10.64    0.87
   2   9   9   73.13    2.83
   2   9   9   76.15    2.95
   2   9  10   36.40    2.00
   2   9  10   38.63    2.16
   2   9  11    2.02    0.84
   2   9  11    1.48    0.66
   2   9  12  171.39    4.21
   2   9  12  177.81    4.71
   2   9  13   82.26    2.64
   2   9  14   69.83    1.96
  -2  -9 -14   56.62    1.43
  -2 -10   5   36.05    1.39
   2  10  -4  185.68    3.63
  -2 -10   4  179.54    3.84
   2  10  -3   40.68    1.60
  -2 -10   3   35.59    1.62
  -2 -10   3   39.44    1.71
  -2 -10   2  140.85    3.66
  -2 -10   2  146.86    3.90
  -2 -10   1    6.56    0.96
   2  10  -1    7.30    0.84
   2  10  -1    6.72    0.93
   2  10   0    4.66    0.75
   2  10   0    5.01    0.86
   2  10   1    1.61    0.59
   2  10   2    1.83    0.61
   2  10   2    3.03    0.72
  -2 -10  -3    5.17    0.73
   2  10   3    4.85    0.79
   2  10   3    3.61    0.74
   2  10   4  227.93    5.10
  -2 -10  -4  227.96    4.80
  -2 -10  -5   78.94    2.43
   2  10   5   81.77    2.73
  -2 -10  -5   77.21    2.39
   2  10   6    7.89    0.96
  -2 -10  -6    7.25    0.79
  -2 -10  -6    8.07    0.83
  -2 -10  -7  169.38    3.90
   2  10   7  162.66    4.30
  -2 -10  -7  164.49    3.81
   2  10   8  273.81    6.12
  -2 -10  -8  259.55    5.38
   2  10   9   21.33    1.50
  -2 -10  -9   22.36    1.27
   2  10  10   40.22    2.05
  -2 -10 -10   44.24    1.76
  -2 -10 -11   84.90    2.51
   2  10  11  107.98    3.34
   2  10  12    9.95    1.03
  -2 -10 -12    8.06    0.68
  -2 -10 -13   19.67    0.82
   2  10  13   24.99    1.23
   2  11  -3  156.40    2.97
   2  11  -3  138.40    2.83
   2  11  -2   15.91    0.93
  -2 -11   2   18.66    1.07
   2  11  -1  359.73    6.33
  -2 -11   1  331.33    6.60
   2  11   0   92.66    2.56
  -2 -11   0   87.82    2.71
   2  11   1   10.79    0.92
   2  11   2    3.40    0.65
   2  11   2    1.25    0.67
   2  11   3    0.26    0.50
   2  11   3    5.51    0.79
   2  11   4   46.04    1.86
  -2 -11  -4   45.31    1.70
  -2 -11  -5   26.62    1.30
   2  11   5   22.42    1.29
   2  11   5   25.46    1.42
   2  11   6  205.38    4.69
  -2 -11  -6  209.37    4.38
   2  11   7  145.93    3.79
  -2 -11  -7  151.68    3.48
  -2 -11  -8    7.64    0.75
   2  11   8    6.95    0.89
  -2 -11  -9  307.64    5.73
   2  11   9  291.14    6.18
   2  11  10  114.41    3.23
  -2 -11 -10  102.45    2.65
  -2 -11 -11    6.21    0.59
   2  11  11    7.32    0.87
   2  11  12    1.82    0.54
   2  11  13   13.65    0.77
   2  12  -1  128.85    2.50
   2  12  -1  109.62    2.38
   2  12   0  123.44    2.65
  -2 -12   0  110.75    2.78
  -2 -12  -1   49.17    1.78
   2  12   1   53.12    1.64
  -2 -12  -2   29.38    1.36
   2  12   2   31.02    1.27
   2  12   2   26.82    1.27
   2  12   3    0.49    0.46
   2  12   3    0.65    0.54
   2  12   4  104.87    2.61
   2  12   4   96.24    2.61
   2  12   5   27.65    1.27
   2  12   5   28.18    1.33
   2  12   6   39.57    1.54
   2  12   6   39.74    1.56
   2  12   7   21.92    1.13
  -2 -12  -7   23.88    1.06
   2  12   7   22.78    1.18
   2  12   8  161.53    3.68
  -2 -12  -8  167.13    3.40
  -2 -12  -9   16.62    0.85
   2  12   9   15.73    1.02
   2  12  10  101.99    2.53
  -2 -12 -10   75.65    1.89
   2  12  11    4.15    0.56
   2  13   3   73.55    1.72
  -2 -13  -3   67.77    1.84
   2  13   4   31.99    1.07
   2  13   4   27.09    1.09
   2  13   5   20.09    0.88
   2  13   5   18.54    0.92
   2  13   6  213.07    3.78
   2  13   6  187.19    3.72
   2  13   7   32.48    1.13
   2  13   8    2.74    0.43
   2  13   9   20.72    0.88
  -3  11   7    8.48    0.59
  -3  11   6   66.72    1.61
  -3  11   2    1.78    0.40
  -3  10  10   13.58    0.90
  -3  10   9    7.85    0.79
  -3  10   8  129.15    2.85
  -3  10   8  129.42    3.15
  -3  10   7   82.80    2.38
  -3  10   7   79.61    2.08
  -3  10   6   20.96    1.00
  -3  10   6   22.97    1.21
  -3  10   5  425.18    7.13
  -3  10   5  425.44    7.37
  -3  10   4   29.95    1.15
  -3  10   4   30.61    1.26
  -3  10   3    5.60    0.55
  -3  10   2    3.35    0.48
  -3  10   1    0.71    0.36
   3 -10  -1    0.53    0.64
  -3  10   0    7.08    0.67
   3 -10   0    8.31    0.84
  -3  10  -1    4.42    0.52
   3 -10   1    5.34    0.62
  -3   9  12   43.35    1.38
  -3   9  11   18.27    1.07
  -3   9  10   32.95    1.40
  -3   9  10   31.64    1.51
  -3   9   9   88.73    2.74
  -3   9   9   94.97    2.63
  -3   9   8   45.19    1.89
  -3   9   8   47.72    1.79
  -3   9   7    4.96    0.77
  -3   9   7    4.65    0.65
  -3   9   6  141.32    3.42
  -3   9   6  150.80    3.69
  -3   9   5    1.66    0.58
  -3   9   5    3.16    0.58
  -3   9   5    1.17    0.66
  -3   9   4  123.93    3.14
  -3   9   4  115.53    2.92
  -3   9   4  124.81    3.24
  -3   9   3   77.86    2.22
  -3   9   3   82.61    2.41
  -3   9   3   81.83    2.45
  -3   9   2  141.15    3.21
  -3   9   2  143.07    3.34
  -3   9   1  317.28    5.76
  -3   9   0   37.48    1.40
  -3   9   0   33.04    1.44
   3  -9   1   54.48    2.33
  -3   9  -1   58.53    1.72
  -3   9  -2   12.12    0.87
  -3   9  -2   11.11    0.77
  -3   9  -2   12.37    0.77
  -3   9  -3  174.07    3.41
  -3   9  -3  173.54    3.38
  -3   8  13   66.41    1.78
  -3   8  12    0.79    0.40
  -3   8  12    0.98    0.46
  -3   8  11  132.28    3.45
  -3   8  11  127.82    3.27
  -3   8  10  229.25    5.08
  -3   8  10  233.36    5.25
  -3   8   9   24.15    1.46
  -3   8   9   23.63    1.41
  -3   8   8  220.21    5.01
  -3   8   8  218.87    4.92
  -3   8   7  126.32    3.36
  -3   8   7  120.36    3.53
  -3   8   6    0.34    0.63
  -3   8   6    0.57    0.49
  -3   8   5   93.55    2.97
  -3   8   5   93.08    2.72
  -3   8   4    6.51    0.97
  -3   8   4    6.61    0.86
  -3   8   4    6.02    0.75
  -3   8   3   55.89    2.10
  -3   8   3   50.85    2.07
  -3   8   3   51.56    1.87
  -3   8   2  464.64    8.25
  -3   8   2  480.77    8.58
  -3   8   2  488.23    8.58
  -3   8   1   34.54    1.47
  -3   8   1   36.37    1.58
  -3   8   0   54.32    1.86
  -3   8   0   55.55    2.10
  -3   8   0   56.51    1.93
  -3   8  -1   55.15    1.86
  -3   8  -1   52.45    1.98
  -3   8  -2  577.72    9.88
   3  -8   2  564.50   11.01
  -3   8  -3  309.12    5.79
  -3   8  -3  322.52    5.77
  -3   8  -3  304.09    5.87
  -3   8  -4   85.92    2.24
  -3   8  -4   89.97    2.19
  -3   8  -4   90.04    2.29
   3  -8   4   89.65    2.67
   3  -8   5  248.31    4.78
  -3   7  13   50.46    1.72
  -3   7  13   51.33    1.81
  -3   7  12   93.45    2.68
  -3   7  12   97.21    2.85
  -3   7  12   91.03    2.92
  -3   7  11    0.05    0.59
  -3   7  11    0.43    0.71
  -3   7  11    0.53    0.58
  -3   7  10   38.39    1.91
  -3   7  10   38.09    1.99
  -3   7  10   34.83    2.03
  -3   7   9   32.22    1.92
  -3   7   9   35.83    1.85
  -3   7   9   35.98    1.92
  -3   7   8  109.12    3.49
  -3   7   8  100.12    3.16
  -3   7   8  106.32    3.28
  -3   7   7  721.85   12.59
  -3   7   7  715.66   12.30
  -3   7   7  702.47   12.18
  -3   7   6  604.81   10.71
  -3   7   6  639.25   10.85
  -3   7   6  594.93   11.08
  -3   7   6  585.43   10.95
  -3   7   6  629.38   11.06
   3  -7  -6  647.80   10.78
  -3   7   5    0.57    0.50
  -3   7   5    0.39    0.53
  -3   7   5    1.12    0.67
   3  -7  -5    0.66    0.50
  -3   7   4  512.46    9.40
  -3   7   4  507.56    9.46
  -3   7   4  509.20    9.04
  -3   7   3  248.44    5.12
   3  -7  -3  236.84    4.98
  -3   7   3  254.72    5.49
  -3   7   2    0.95    0.49
  -3   7   2    1.10    0.68
   3  -7  -2    0.82    0.48
  -3   7   1    5.30    0.77
   3  -7  -1    4.53    0.70
  -3   7   1    4.50    0.64
  -3   7   1    4.82    0.78
  -3   7   0  362.49    6.92
  -3   7   0  377.75    6.83
  -3   7   0  381.03    7.09
  -3   7  -1  182.07    4.01
  -3   7  -1  184.34    4.07
  -3   7  -2    0.73    0.68
  -3   7  -2    0.96    0.52
  -3   7  -3  220.04    4.61
  -3   7  -3  219.42    4.84
  -3   7  -3  216.27    4.74
  -3   7  -4  254.67    5.29
  -3   7  -4  262.11    5.18
   3  -7   4  265.31    6.10
  -3   7  -4  258.49    5.25
  -3   7  -4  268.34    5.28
  -3   7  -5    0.28    0.56
   3  -7   5    0.44    0.69
  -3   7  -5    0.30    0.56
  -3   7  -5    0.56    0.44
   3  -7   6  207.54    4.38
   3  -7   7    1.17    0.42
  -3   6  14   59.39    1.72
  -3   6  14   55.33    1.79
  -3   6  13   25.58    1.31
  -3   6  13   27.76    1.28
  -3   6  12   40.62    1.87
   3  -6 -12   34.79    1.42
  -3   6  12   39.07    1.80
  -3   6  11  251.71    5.72
  -3   6  11  237.72    5.60
  -3   6  10  148.42    4.28
  -3   6   9  346.55    7.43
  -3   6   9  334.58    7.29
  -3   6   8  557.98   10.40
  -3   6   8  539.73   10.23
  -3   6   7  250.90    5.96
  -3   6   7  273.50    5.91
  -3   6   7  261.72    5.76
   3  -6  -7  265.82    5.41
  -3   6   6  506.94    9.54
   3  -6  -6  514.65    8.69
   3  -6  -6  510.43    8.85
  -3   6   6  479.25    9.00
  -3   6   6  502.46    9.13
  -3   6   5  156.94    3.99
  -3   6   5  159.47    3.85
  -3   6   5  156.50    4.04
  -3   6   5  162.67    4.16
   3  -6  -5  166.85    3.73
  -3   6   5  158.41    3.84
  -3   6   4  162.46    4.02
  -3   6   4  161.13    3.81
   3  -6  -4  159.61    3.60
  -3   6   4  164.40    4.08
  -3   6   4  166.54    4.08
  -3   6   3  588.16   10.01
  -3   6   3  617.60   10.48
  -3   6   3  579.06   10.35
  -3   6   3  605.18   10.28
   3  -6  -3  579.20    9.75
   3  -6  -2  291.83    5.43
  -3   6   2  280.74    5.48
  -3   6   2  288.27    5.89
  -3   6   2  274.59    5.58
  -3   6   1   41.88    1.73
   3  -6  -1   39.00    1.51
  -3   6   1   38.54    1.50
  -3   6   1   39.88    1.73
  -3   6   0  104.94    2.88
   3  -6   0   99.35    2.66
  -3   6   0  102.45    2.64
  -3   6   0  109.15    2.97
   3  -6   1  228.45    4.83
  -3   6  -1  242.26    4.76
  -3   6  -1  238.07    4.92
  -3   6  -2  364.76    6.89
  -3   6  -2  385.59    7.00
  -3   6  -2  363.26    7.03
  -3   6  -3  231.83    4.91
  -3   6  -3  239.54    5.13
  -3   6  -3  239.07    4.90
  -3   6  -4    5.92    0.77
   3  -6   4    4.28    1.16
  -3   6  -4    4.27    0.82
  -3   6  -4    4.31    0.87
  -3   6  -5   36.59    1.68
  -3   6  -5   34.58    1.54
   3  -6   5   38.62    2.14
  -3   6  -5   36.97    1.67
  -3   6  -5   36.23    1.71
  -3   6  -6   94.03    2.52
  -3   6  -6   95.84    2.62
   3  -6   6  102.46    3.14
  -3   6  -6  102.71    2.73
   3  -6   7  375.82    6.88
  -3   6  -7  356.33    6.30
   3  -6   8   62.56    1.83
   3  -5 -14   33.95    1.17
   3  -5 -13   21.52    1.06
  -3   5  13   22.53    1.26
   3  -5 -12  116.60    2.94
  -3   5  12  130.14    3.65
   3  -5 -11    1.71    0.62
  -3   5  11    2.37    0.80
   3  -5 -10   20.84    1.27
  -3   5  10   19.73    1.55
  -3   5   9   27.92    1.78
  -3   5   9   30.85    1.90
  -3   5   9   25.13    1.82
   3  -5  -9   27.34    1.45
   3  -5  -9   30.64    1.61
  -3   5   8  375.63    8.19
  -3   5   8  379.31    7.78
   3  -5  -8  376.34    7.41
  -3   5   7  655.95   11.72
  -3   5   7  628.91   11.70
   3  -5  -7  651.51   10.71
  -3   5   6  248.82    5.51
   3  -5  -6  250.20    4.87
  -3   5   6  253.54    5.62
   3  -5  -6  247.14    4.95
  -3   5   6  239.06    5.22
  -3   5   5  848.82   14.29
  -3   5   5  890.24   14.35
   3  -5  -5  918.07   13.82
  -3   5   5  879.84   14.08
   3  -5  -5  836.83   13.46
   3  -5  -4  177.38    3.67
  -3   5   4  169.03    4.04
   3  -5  -4  178.32    3.56
  -3   5   4  180.05    4.28
  -3   5   3   18.68    1.11
  -3   5   3   19.11    1.14
   3  -5  -2   23.05    1.04
  -3   5   2   23.20    1.27
   3  -5  -1    2.82    0.45
  -3   5   1    2.99    0.58
  -3   5   1    3.28    0.56
  -3   5   1    2.26    0.56
  -3   5   0  109.72    2.84
   3  -5   0  107.92    2.55
  -3   5   0  105.60    2.88
  -3   5   0  104.15    2.78
  -3   5  -1   53.05    1.71
  -3   5  -1   55.90    1.91
   3  -5   1   53.69    1.67
  -3   5  -1   57.83    2.01
  -3   5  -2  204.79    4.18
  -3   5  -2  203.50    4.16
  -3   5  -2  200.56    4.31
  -3   5  -2  211.04    4.40
  -3   5  -3  709.60   11.66
  -3   5  -3  726.38   11.78
  -3   5  -3  705.39   11.62
  -3   5  -3  738.46   12.01
  -3   5  -3  707.18   11.91
  -3   5  -4  160.00    3.83
  -3   5  -4  174.60    3.91
  -3   5  -4  158.42    3.96
  -3   5  -4  171.18    4.03
  -3   5  -4  169.78    4.09
  -3   5  -4  158.31    3.97
  -3   5  -4  158.98    3.83
  -3   5  -5  182.24    4.34
  -3   5  -5  178.56    4.18
  -3   5  -5  188.83    4.32
   3  -5   5  179.69    5.12
  -3   5  -6  343.04    6.73
  -3   5  -6  354.20    6.70
  -3   5  -6  354.29    6.86
  -3   5  -6  375.86    7.11
   3  -5   6  387.50    7.77
  -3   5  -7   25.22    1.29
  -3   5  -7   28.41    1.51
   3  -5   7   28.68    1.67
   3  -5   8  196.65    4.31
  -3   5  -8  195.68    3.99
  -3   5  -9  161.29    3.22
   3  -5   9  169.83    3.37
   3  -4 -14   19.31    0.95
  -3   4  14   21.29    1.04
  -3   4  13    3.47    0.68
   3  -4 -13    3.83    0.62
  -3   4  12   50.35    2.21
   3  -4 -12   48.48    1.77
   3  -4 -11   11.22    0.95
  -3   4  11   12.59    1.28
   3  -4 -10   44.40    1.75
  -3   4  10   49.24    2.38
  -3   4  10   50.39    2.46
   3  -4  -9  979.60   14.96
  -3   4   9  980.48   16.51
   3  -4  -8  329.12    6.10
  -3   4   8  328.74    7.19
  -3   4   7   48.60    1.66
  -3   4   7   45.24    1.94
   3  -4  -7   49.44    1.66
  -3   4   7   48.00    2.18
  -3   4   6  290.12    6.12
  -3   4   6  287.09    5.61
   3  -4  -6  298.31    5.52
  -3   4   6  294.07    6.22
   3  -4  -5  546.99    9.04
   3  -4  -5  573.13    9.22
  -3   4   5  551.37    9.67
  -3   4   4   32.46    1.45
   3  -4  -4   33.79    1.25
   3  -4  -4   34.14    1.17
  -3   4   3  824.06   13.13
   3  -4  -3  825.03   12.46
   3  -4  -2  206.82    3.84
  -3   4   2  211.75    4.29
  -3   4   1  131.77    3.11
   3  -4  -1  129.87    2.70
   3  -4   0   58.21    1.61
   3  -4   1    0.79    0.32
   3  -4   2    4.87    0.50
  -3   4  -2    4.92    0.62
  -3   4  -2    5.74    0.61
  -3   4  -3   48.06    1.65
  -3   4  -3   50.39    1.71
  -3   4  -3   53.37    1.82
  -3   4  -3   48.25    1.79
  -3   4  -3   49.13    1.75
  -3   4  -4 1056.26   16.64
  -3   4  -4 1018.70   16.28
  -3   4  -4 1024.18   16.33
  -3   4  -4 1073.50   16.56
  -3   4  -4 1038.85   16.58
  -3   4  -4 1066.23   16.39
  -3   4  -5   78.85    2.57
  -3   4  -5   74.17    2.49
  -3   4  -5   76.87    2.43
  -3   4  -5   74.17    2.46
  -3   4  -5   77.52    2.45
  -3   4  -5   83.38    2.60
  -3   4  -5   82.06    2.57
  -3   4  -6   80.09    2.56
  -3   4  -6   86.95    2.63
  -3   4  -6   87.66    2.70
   3  -4   6   90.33    3.25
  -3   4  -6   91.19    2.95
  -3   4  -7   19.47    1.29
  -3   4  -7   19.30    1.24
  -3   4  -7   20.35    1.47
   3  -4   7   20.56    1.52
  -3   4  -7   18.77    1.23
  -3   4  -8   84.10    2.54
   3  -4   8   89.78    2.86
  -3   4  -8   90.85    2.74
   3  -4   9    1.46    0.63
   3  -4   9    0.72    0.57
  -3   4  -9    0.86    0.51
  -3   4 -10   30.49    1.15
   3  -4  10   32.76    1.29
  -3   4 -10   30.78    1.17
  -3   3  14   27.93    1.22
  -3   3  13    3.69    0.73
   3  -3 -13    2.81    0.66
   3  -3 -12   13.58    1.03
  -3   3  12   13.40    1.20
   3  -3 -11   10.36    0.91
  -3   3  11   10.35    1.18
  -3   3  11   10.80    1.18
   3  -3 -10   35.17    1.49
  -3   3  10   34.67    2.02
  -3   3  10   39.23    2.16
   3  -3  -9  176.78    3.79
  -3   3   9  181.61    5.05
   3  -3  -8   73.91    2.10
  -3   3   8   73.11    2.95
   3  -3  -7  798.58   12.57
  -3   3   7  788.12   13.96
   3  -3  -7  807.46   12.52
   3  -3  -6  178.27    3.69
   3  -3  -5   58.63    1.74
  -3   3   4  307.76    5.76
   3  -3  -4  307.64    5.37
  -3   3   3  163.57    3.49
   3  -3  -2 1863.95   27.31
  -3   3   2 1874.89   27.71
  -3   3   2 1895.53   27.69
   3  -3  -2 1906.90   27.10
   3  -3  -1   22.76    0.85
  -3   3   1   21.13    1.00
  -3   3   0  646.47   10.22
   3  -3   0  630.45    9.70
   3  -3   1   69.91    1.63
   3  -3   2  382.45    6.14
  -3   3  -3  348.83    6.20
  -3   3  -4  189.02    3.95
  -3   3  -4  181.78    3.89
  -3   3  -4  184.93    3.95
  -3   3  -4  198.35    4.16
  -3   3  -4  200.75    4.17
  -3   3  -4  190.51    4.07
  -3   3  -5  528.53    9.13
  -3   3  -5  522.02    9.07
  -3   3  -5  518.02    8.89
  -3   3  -5  516.99    8.91
  -3   3  -5  502.99    8.97
  -3   3  -5  525.62    9.11
  -3   3  -6 1006.47   16.13
  -3   3  -6 1021.21   16.18
  -3   3  -6  981.83   16.21
  -3   3  -6 1021.23   16.33
  -3   3  -6 1032.86   16.33
   3  -3   6 1004.60   17.01
  -3   3  -7   84.80    2.65
  -3   3  -7   88.03    2.64
  -3   3  -7   86.24    2.69
  -3   3  -7   88.74    2.88
   3  -3   7   85.88    2.96
  -3   3  -7   90.34    2.75
  -3   3  -8  236.45    5.05
  -3   3  -8  233.61    5.16
  -3   3  -9    1.93    0.66
  -3   3  -9    1.67    0.79
  -3   3 -10   22.86    1.17
   3  -3  10   25.30    1.37
  -3   3 -10   23.88    1.24
   3  -3  11   81.20    2.12
  -3   3 -11   79.19    2.02
   3  -2 -14   11.31    0.74
  -3   2  14   11.84    0.81
   3  -2 -13   19.02    1.09
  -3   2  13   20.23    1.28
  -3   2  12   42.29    2.04
  -3   2  12   46.72    2.14
  -3   2  11   10.42    1.14
  -3   2  11   11.38    1.24
  -3   2  10   18.42    1.56
   3  -2 -10   18.80    1.11
  -3   2  10   16.58    1.40
   3  -2  -9    4.85    0.70
  -3   2   9    4.45    0.95
  -3   2   9    4.05    0.83
   3  -2  -8   28.36    1.22
  -3   2   8   29.89    1.88
  -3   2   8   27.52    1.61
   3  -2  -7    9.29    0.69
  -3   2   7    9.92    1.11
   3  -2  -7    9.07    0.61
   3  -2  -7    9.88    0.67
   3  -2  -6  192.82    3.75
   3  -2  -6  183.51    3.40
   3  -2  -5    4.41    0.55
   3  -2  -5    3.64    0.39
   3  -2  -4 1370.12   20.27
  -3   2   3 1179.70   17.40
   3  -2  -3 1139.04   17.10
  -3   2   2   45.99    1.38
   3  -2  -2   41.44    1.17
   3  -2  -1   58.49    1.38
  -3   2   1   57.89    1.59
  -3   2   1   58.49    1.54
   3  -2   0 1012.27   14.82
  -3   2   0 1007.51   15.14
   3  -2   1   85.35    1.74
  -3   2  -2 1414.73   20.49
   3  -2   2 1389.00   20.17
  -3   2  -3  543.65    8.73
  -3   2  -4  142.52    3.19
  -3   2  -4  141.34    3.14
  -3   2  -5   28.89    1.30
  -3   2  -5   28.82    1.32
  -3   2  -5   27.79    1.27
  -3   2  -5   28.52    1.36
  -3   2  -5   28.54    1.31
  -3   2  -6  132.88    3.26
  -3   2  -6  139.95    3.41
  -3   2  -6  130.47    3.16
  -3   2  -6  131.46    3.27
  -3   2  -6  140.64    3.43
  -3   2  -6  135.52    3.33
  -3   2  -6  135.71    3.31
  -3   2  -7   79.14    2.46
  -3   2  -7   81.68    2.52
  -3   2  -7   80.16    2.67
  -3   2  -7   85.94    2.64
   3  -2   7   81.57    2.72
  -3   2  -7   83.69    2.56
  -3   2  -7   84.14    2.58
  -3   2  -8  320.20    6.34
  -3   2  -8  303.92    6.04
  -3   2  -8  315.50    6.39
  -3   2  -9  595.03   10.02
  -3   2  -9  591.10   10.44
  -3   2  -9  604.58   10.46
  -3   2 -10   72.84    2.34
   3  -2  10   77.63    2.67
  -3   2 -10   75.88    2.46
  -3   2 -11   37.60    1.43
  -3   2 -11   42.05    1.62
   3  -2  11   42.83    1.77
  -3   2 -12    1.65    0.43
   3  -1 -14    9.36    0.63
   3  -1 -13   15.14    0.93
  -3   1  13   16.05    1.13
   3  -1 -12    1.18    0.58
  -3   1  12    1.00    0.70
  -3   1  12    1.00    0.64
   3  -1 -11   99.56    2.71
  -3   1  11   90.37    3.15
  -3   1  11   97.48    3.46
  -3   1  10  727.48   13.25
  -3   1  10  795.31   13.94
  -3   1   9   88.95    3.07
  -3   1   9   98.51    3.58
  -3   1   9  103.05    3.58
   3  -1  -9   88.93    2.35
  -3   1   8   13.58    1.36
   3  -1  -8   12.01    0.84
  -3   1   8   13.90    1.17
  -3   1   8   12.33    1.30
   3  -1  -8   13.10    0.77
  -3   1   8   13.15    1.14
  -3   1   7  690.47   13.44
  -3   1   7  733.50   13.39
   3  -1  -7  776.24   11.82
   3  -1  -7  749.90   11.62
   3  -1  -7  805.08   11.82
  -3   1   6   56.46    2.26
   3  -1  -6   55.05    1.40
   3  -1  -6   53.32    1.58
   3  -1  -5  464.79    7.98
   3  -1  -5  495.14    7.60
   3  -1  -4  211.17    4.15
   3  -1  -4  246.94    3.89
   3  -1  -3 1198.51   17.68
  -3   1   2  478.98    7.58
   3  -1  -1  119.25    2.24
  -3   1   1  114.94    2.29
  -3   1   0  157.79    2.80
   3  -1   0  146.43    2.63
   3  -1   1    7.78    0.40
   3  -1   2   81.47    1.52
  -3   1  -2   76.38    1.73
  -3   1  -3   45.94    1.34
  -3   1  -4   41.94    1.36
  -3   1  -4   43.45    1.42
  -3   1  -5  231.76    4.45
  -3   1  -5  234.07    4.49
  -3   1  -6   35.16    1.48
  -3   1  -6   35.32    1.48
  -3   1  -6   35.74    1.54
  -3   1  -6   34.45    1.39
  -3   1  -6   34.73    1.42
  -3   1  -6   35.79    1.42
  -3   1  -7   75.40    2.35
  -3   1  -7   77.97    2.35
  -3   1  -7   70.36    2.23
  -3   1  -7   77.11    2.43
  -3   1  -7   75.28    2.27
  -3   1  -8 1037.15   16.44
  -3   1  -8 1069.90   16.75
  -3   1  -8 1021.52   16.39
  -3   1  -9    0.85    0.67
  -3   1  -9    0.82    0.61
  -3   1 -10  115.87    3.15
  -3   1 -10  110.09    2.90
   3  -1  10  112.26    3.46
  -3   1 -10  116.36    3.27
  -3   1 -10  107.13    2.78
  -3   1 -11   65.37    2.09
   3  -1  11   68.77    2.48
   3  -1  12   84.63    2.46
  -3   1 -12   74.98    1.94
  -3   1 -13    4.06    0.45
   3   0 -13    5.80    0.62
  -3   0  13    5.98    0.78
  -3   0  13    6.73    0.79
   3   0 -12    3.95    0.64
  -3   0  12    3.25    0.75
  -3   0  12    5.10    0.93
   3   0 -11   55.79    1.91
  -3   0  11   49.52    2.26
  -3   0  11   53.37    2.57
   3   0 -10   42.59    1.70
  -3   0  10   41.86    2.33
  -3   0  10   38.91    2.00
  -3   0   9    3.48    0.83
  -3   0   9    3.69    0.97
   3   0  -9    3.55    0.68
  -3   0   9    3.33    0.81
   3   0  -9    2.92    0.55
   3   0  -8   35.45    1.38
  -3   0   8   39.95    1.87
  -3   0   8   37.43    2.04
  -3   0   8   37.93    2.11
   3   0  -8   35.19    1.33
  -3   0   8   34.68    1.72
   3   0  -7  670.25   10.47
   3   0  -7  677.75   10.46
  -3   0   7  682.26   12.09
   3   0  -6   51.66    1.47
  -3   0   6   47.22    2.18
  -3   0   5    1.69    0.53
   3   0  -5    2.04    0.43
  -3   0   4  169.05    3.65
  -3   0   4  164.54    3.12
  -3   0   3   36.98    1.17
  -3   0   3   37.24    1.18
  -3   0   2  567.43    8.63
  -3   0   2  580.76    8.83
  -3   0   1  130.50    2.33
  -3   0   1  128.98    2.17
  -3   0   1  123.65    1.92
  -3   0   1  126.18    2.35
  -3   0   0 5049.63   72.57
  -3   0   0 5185.24   72.57
  -3   0  -1    4.68    0.42
   3   0   1    5.43    0.31
   3   0   2  340.67    5.13
  -3   0  -2  346.53    5.55
  -3   0  -2  346.86    5.49
  -3   0  -2  334.04    5.40
   3   0   3  327.53    4.97
  -3   0  -3  345.75    5.62
  -3   0  -4    3.31    0.46
  -3   0  -5   57.96    1.66
  -3   0  -5   62.42    1.71
  -3   0  -6  152.44    3.27
  -3   0  -6  155.99    3.31
  -3   0  -7    1.90    0.47
  -3   0  -7    2.16    0.58
  -3   0  -7    2.17    0.65
  -3   0  -7    2.19    0.49
  -3   0  -7    1.89    0.59
  -3   0  -8    0.98    0.56
  -3   0  -8    0.64    0.68
  -3   0  -8    1.00    0.61
  -3   0  -8    0.55    0.42
   3   0   9    4.09    0.82
  -3   0  -9    2.60    0.63
  -3   0  -9    4.00    0.91
  -3   0  -9    3.54    0.62
  -3   0 -10  106.52    3.01
   3   0  10  104.59    3.35
  -3   0 -10  103.55    2.91
  -3   0 -10  103.80    2.77
  -3   0 -11   24.17    1.31
  -3   0 -11   25.77    1.36
  -3   0 -11   27.21    1.52
   3   0  11   24.23    1.60
   3   0  12   10.42    1.04
  -3   0 -12   11.56    0.97
  -3   0 -12   10.89    0.84
  -3   0 -12   10.24    0.76
   3   0  13   60.61    1.91
  -3   0 -13   59.92    1.77
   3   1 -13   21.98    0.91
  -3  -1  13   23.85    1.16
  -3  -1  13   25.15    1.26
   3   1 -12    0.49    0.45
  -3  -1  12    0.44    0.69
  -3  -1  12    0.38    0.57
  -3  -1  11   11.10    1.33
  -3  -1  11    8.81    1.08
   3   1 -11   11.20    0.88
   3   1 -10   81.71    2.37
  -3  -1  10   79.19    2.90
  -3  -1  10   80.95    3.23
   3   1  -9   10.46    0.91
  -3  -1   9   13.36    1.20
  -3  -1   9   10.11    1.12
  -3  -1   9   10.43    1.17
  -3  -1   9   10.93    1.28
   3   1  -9    9.94    0.84
   3   1  -8  754.54   11.86
  -3  -1   8  771.38   13.49
  -3  -1   8  720.66   12.56
   3   1  -8  727.16   11.78
  -3  -1   8  742.67   13.27
  -3  -1   8  751.36   12.87
   3   1  -7 1391.40   20.87
  -3  -1   7 1359.35   21.55
  -3  -1   7 1412.99   21.91
  -3  -1   7 1430.53   22.61
  -3  -1   7 1374.43   22.25
   3   1  -7 1412.15   20.85
  -3  -1   6   25.00    1.60
   3   1  -6   27.22    1.16
  -3  -1   5  173.49    3.50
  -3  -1   5  180.10    3.24
  -3  -1   4  211.75    3.82
  -3  -1   4  228.47    4.59
  -3  -1   3  132.25    2.67
  -3  -1   3  124.57    2.67
  -3  -1   2  844.10   12.81
  -3  -1   2  866.43   12.65
  -3  -1   2  838.25   12.30
  -3  -1   1 2398.69   33.89
  -3  -1   1 2390.00   34.31
  -3  -1   0  883.89   12.95
  -3  -1   0  885.28   12.92
  -3  -1  -1   57.15    1.08
  -3  -1  -1   58.29    1.11
  -3  -1  -1   55.63    1.31
  -3  -1  -2    1.24    0.32
  -3  -1  -2    0.66    0.11
  -3  -1  -2    0.58    0.23
  -3  -1  -2    0.56    0.29
  -3  -1  -3  624.01    9.70
  -3  -1  -3  602.12    9.79
   3   1   3  657.26    9.24
  -3  -1  -3  682.22    9.99
  -3  -1  -4  104.99    2.28
  -3  -1  -5  346.88    5.87
  -3  -1  -5  345.89    5.91
  -3  -1  -6   33.97    1.29
  -3  -1  -6   34.98    1.26
  -3  -1  -7   50.73    1.76
  -3  -1  -7   51.31    1.66
  -3  -1  -7   52.30    1.79
  -3  -1  -7   54.47    1.75
   3   1   8  238.91    5.27
  -3  -1  -8  245.36    4.81
  -3  -1  -8  243.30    5.00
  -3  -1  -8  244.06    5.01
  -3  -1  -9   76.34    2.44
  -3  -1  -9   77.05    2.47
  -3  -1  -9   76.39    2.30
  -3  -1  -9   76.82    2.56
  -3  -1  -9   73.01    2.33
  -3  -1  -9   74.77    2.49
   3   1   9   73.70    2.63
  -3  -1 -10  236.53    5.02
   3   1  10  226.82    5.44
  -3  -1 -10  232.30    5.08
  -3  -1 -10  233.21    5.19
  -3  -1 -10  235.58    4.83
  -3  -1 -11   47.02    1.83
  -3  -1 -11   48.27    1.92
  -3  -1 -11   49.95    1.77
   3   1  11   46.86    2.20
  -3  -1 -11   50.89    2.07
  -3  -1 -12   29.89    1.41
   3   1  12   32.62    1.75
  -3  -1 -12   27.44    1.26
  -3  -1 -12   30.63    1.52
   3   1  13   32.93    1.55
  -3  -1 -13   30.96    1.35
  -3  -1 -14   23.72    0.90
  -3  -1 -14   23.18    0.92
   3   2 -12    3.58    0.50
  -3  -2  12    4.34    0.71
  -3  -2  12    4.45    0.84
   3   2 -11   46.68    1.57
  -3  -2  11   48.09    2.09
  -3  -2  11   50.05    2.37
   3   2 -10   87.76    2.41
  -3  -2  10   96.37    3.54
  -3  -2  10   92.08    3.09
   3   2  -9    0.64    0.56
  -3  -2   9    1.43    0.72
  -3  -2   9    1.13    0.70
  -3  -2   9    1.47    0.86
   3   2  -8  498.87    8.31
  -3  -2   8  499.33    9.42
  -3  -2   8  511.32    9.71
  -3  -2   8  467.84    9.56
   3   2  -8  479.71    8.34
  -3  -2   7   29.73    1.73
   3   2  -7   30.38    1.33
  -3  -2   7   34.33    1.83
  -3  -2   7   32.72    1.74
  -3  -2   6   95.39    3.12
  -3  -2   6   92.38    2.50
   3   2  -6   93.26    2.40
  -3  -2   5   71.54    2.02
  -3  -2   5   64.71    2.42
  -3  -2   4  158.43    3.13
  -3  -2   4  161.86    3.80
  -3  -2   4  157.64    3.33
  -3  -2   3  565.17    9.26
  -3  -2   3  619.95    9.53
  -3  -2   2 2782.19   35.40
  -3  -2   2 2696.16   35.41
  -3  -2   1   73.30    1.55
  -3  -2   1   75.96    1.83
  -3  -2   0 2020.55   28.78
  -3  -2  -1   76.33    1.48
  -3  -2  -1   78.09    1.48
  -3  -2  -2 1213.06   17.78
  -3  -2  -2 1176.57   17.27
  -3  -2  -2 1219.32   17.38
  -3  -2  -2 1230.35   17.49
  -3  -2  -3 1723.93   24.60
  -3  -2  -3 1772.52   24.72
  -3  -2  -4   16.37    0.55
  -3  -2  -4   16.99    0.78
  -3  -2  -5  333.18    5.79
  -3  -2  -6  206.72    4.12
  -3  -2  -6  215.95    4.06
  -3  -2  -7  567.62    9.47
  -3  -2  -7  575.61    9.30
  -3  -2  -8   11.85    0.82
  -3  -2  -8   12.90    0.95
  -3  -2  -8   13.60    0.98
  -3  -2  -8   11.68    1.00
  -3  -2  -8   11.31    0.91
   3   2   8   13.42    1.12
  -3  -2  -9    6.79    0.79
  -3  -2  -9    7.33    0.73
  -3  -2  -9    8.50    0.91
   3   2   9    8.13    1.00
  -3  -2  -9    7.86    0.78
  -3  -2  -9    7.05    0.90
  -3  -2 -10    4.19    0.67
  -3  -2 -10    4.10    0.81
  -3  -2 -10    4.34    0.70
   3   2  10    4.28    0.86
  -3  -2 -10    3.70    0.80
  -3  -2 -10    4.53    0.70
  -3  -2 -11   -0.08    0.46
  -3  -2 -11    0.15    0.47
   3   2  11    0.28    0.68
  -3  -2 -11    0.39    0.67
  -3  -2 -11    0.49    0.59
  -3  -2 -12    9.46    0.95
  -3  -2 -12   10.82    1.01
   3   2  12   10.57    1.12
   3   2  13   20.33    1.32
  -3  -2 -13   20.59    1.15
   3   2  14   34.92    1.41
  -3  -2 -14   29.10    1.12
  -3  -3  12    0.78    0.57
  -3  -3  12    0.84    0.44
  -3  -3  11    1.35    0.65
  -3  -3  11    2.01    0.81
   3   3 -10  413.15    7.14
  -3  -3  10  422.51    8.20
   3   3  -9   97.03    2.53
  -3  -3   9  105.14    3.38
  -3  -3   9  105.83    3.68
  -3  -3   9  105.64    3.31
   3   3  -8  533.58    8.89
   3   3  -8  511.94    8.99
  -3  -3   8  570.45   10.30
  -3  -3   8  554.63   10.54
   3   3  -7  287.21    5.37
   3   3  -7  290.23    5.48
  -3  -3   7  299.09    6.39
  -3  -3   6   34.41    1.48
   3   3  -6   27.10    1.31
  -3  -3   6   29.54    1.64
  -3  -3   6   31.58    1.68
   3   3  -6   30.45    1.37
  -3  -3   5    3.08    0.63
  -3  -3   5    2.72    0.58
  -3  -3   4  112.15    3.02
  -3  -3   4  117.20    2.77
  -3  -3   3 1276.11   18.85
  -3  -3   3 1304.54   19.11
  -3  -3   2  637.47   10.17
  -3  -3   2  664.38    9.94
  -3  -3   1  257.13    4.32
  -3  -3   1  253.32    4.56
  -3  -3   0  672.56   10.24
  -3  -3   0  708.42   10.65
  -3  -3  -1  257.14    4.14
  -3  -3  -1  240.09    4.46
  -3  -3  -2 6064.13   85.94
  -3  -3  -3 5806.58   79.73
  -3  -3  -3 5598.37   79.34
  -3  -3  -3 5533.49   79.22
  -3  -3  -4  586.19    9.41
  -3  -3  -4  593.20    9.15
  -3  -3  -5 1361.58   19.99
  -3  -3  -5 1370.64   19.61
  -3  -3  -6  145.09    3.26
  -3  -3  -6  134.22    3.07
  -3  -3  -7  134.33    3.34
  -3  -3  -7  146.63    3.19
  -3  -3  -8  162.81    3.81
  -3  -3  -8  165.86    3.84
   3   3   8  161.90    4.30
  -3  -3  -8  163.83    3.58
  -3  -3  -8  164.49    3.59
  -3  -3  -8  163.06    4.00
  -3  -3  -9    4.19    0.68
  -3  -3  -9    4.03    0.74
  -3  -3  -9    5.56    0.77
   3   3   9    4.25    0.86
  -3  -3  -9    5.30    0.81
  -3  -3  -9    4.67    0.65
   3   3  10    0.09    0.71
  -3  -3 -10    0.02    0.60
  -3  -3 -10    0.35    0.48
  -3  -3 -10    0.51    0.60
  -3  -3 -10    0.24    0.50
  -3  -3 -10    0.15    0.64
  -3  -3 -11   81.26    2.68
  -3  -3 -11   77.36    2.58
   3   3  11   75.20    2.86
  -3  -3 -11   80.03    2.39
  -3  -3 -11   73.63    2.30
  -3  -3 -12   35.87    1.70
   3   3  12   32.55    1.80
  -3  -3 -12   32.57    1.58
   3   3  13   20.34    1.36
  -3  -3 -13   17.88    1.09
  -3  -3 -14   34.58    1.36
  -3  -3 -14   35.32    1.26
   3   3  14   38.39    1.59
  -3  -4  11    7.32    0.91
   3   4 -11    7.30    0.64
  -3  -4  11    7.61    0.77
  -3  -4  10   74.97    2.85
  -3  -4  10   72.67    2.48
  -3  -4   9   31.54    1.74
  -3  -4   9   29.20    1.97
  -3  -4   9   29.51    1.73
   3   4  -8  454.78    7.71
  -3  -4   8  476.14    9.22
  -3  -4   7   59.22    2.55
   3   4  -7   56.89    1.78
  -3  -4   7   56.87    2.58
   3   4  -7   55.44    1.88
  -3  -4   6   87.22    3.00
  -3  -4   6   86.21    2.59
   3   4  -6   80.71    2.44
   3   4  -6   81.04    2.32
  -3  -4   6   83.41    2.90
  -3  -4   5    8.05    0.83
   3   4  -5    7.79    0.76
  -3  -4   5    7.01    0.88
  -3  -4   4  426.14    7.53
  -3  -4   3   13.11    0.81
  -3  -4   3   12.88    0.81
  -3  -4   2 1048.42   15.93
  -3  -4   2 1085.84   16.24
  -3  -4   1  203.95    3.94
  -3  -4   0    3.53    0.48
  -3  -4   0    4.52    0.68
  -3  -4   0    3.34    0.38
  -3  -4  -1  293.04    4.85
  -3  -4  -1  280.58    5.28
  -3  -4  -2 2047.48   29.61
  -3  -4  -2 1975.47   29.49
  -3  -4  -3  123.52    2.98
  -3  -4  -3  122.84    2.46
  -3  -4  -3  122.74    2.78
  -3  -4  -4   97.39    2.22
  -3  -4  -4  101.03    2.13
  -3  -4  -5  305.24    5.31
  -3  -4  -5  341.81    5.69
  -3  -4  -6  908.54   13.83
  -3  -4  -7  553.81    9.04
  -3  -4  -8  117.84    3.07
  -3  -4  -8  118.07    3.19
  -3  -4  -8  110.63    2.89
   3   4   8  106.81    3.39
  -3  -4  -8  100.77    2.88
  -3  -4  -8  108.40    2.82
  -3  -4  -9   20.43    1.31
  -3  -4  -9   21.15    1.38
  -3  -4  -9   20.92    1.27
   3   4   9   23.11    1.64
  -3  -4  -9   22.24    1.20
  -3  -4  -9   21.03    1.24
  -3  -4 -10    3.74    0.77
   3   4  10    5.39    1.00
  -3  -4 -10    4.51    0.82
  -3  -4 -10    5.20    0.76
  -3  -4 -10    5.06    0.71
  -3  -4 -11    0.56    0.46
  -3  -4 -11    0.14    0.67
  -3  -4 -11    0.36    0.57
   3   4  11    0.23    0.70
  -3  -4 -12    6.94    0.93
   3   4  12    6.17    0.96
  -3  -4 -12    6.29    0.80
  -3  -4 -13    1.56    0.55
   3   4  13    1.56    0.70
  -3  -4 -13    1.32    0.49
  -3  -4 -14   35.95    1.41
   3   4  14   38.75    1.67
  -3  -4 -15   13.21    0.69
  -3  -5  11   91.82    2.47
  -3  -5  10   23.60    1.25
  -3  -5  10   24.32    1.49
   3   5 -10   23.74    1.11
  -3  -5   9   14.05    1.18
  -3  -5   9   13.66    1.14
  -3  -5   8   55.53    2.44
  -3  -5   8   56.65    2.68
  -3  -5   7   32.38    1.94
  -3  -5   7   31.98    2.02
   3   5  -6  104.40    2.96
  -3  -5   6  106.76    3.55
   3   5  -6  105.46    2.79
  -3  -5   5  217.20    4.90
   3   5  -5  225.30    4.75
   3   5  -5  211.97    4.50
  -3  -5   5  225.54    5.23
  -3  -5   4   69.39    2.22
   3   5  -4   63.11    2.06
  -3  -5   4   65.68    2.36
  -3  -5   3  530.22    8.74
  -3  -5   3  507.02    8.95
  -3  -5   2  422.67    7.02
  -3  -5   2  404.89    7.25
  -3  -5   1   57.37    1.61
  -3  -5   1   56.52    1.78
  -3  -5   0  126.99    2.65
  -3  -5   0  119.31    2.89
  -3  -5  -1  140.29    3.29
  -3  -5  -1  151.61    3.47
  -3  -5  -2   71.86    1.91
  -3  -5  -2   94.55    2.46
  -3  -5  -3   97.80    2.67
  -3  -5  -3   90.49    2.76
  -3  -5  -4    2.49    0.39
  -3  -5  -4    3.59    0.80
  -3  -5  -4    2.58    0.65
  -3  -5  -5 1365.93   20.76
  -3  -5  -5 1336.42   19.99
  -3  -5  -6  211.64    4.30
  -3  -5  -6  205.66    4.03
  -3  -5  -7   99.67    2.56
  -3  -5  -8   97.80    2.79
  -3  -5  -8   87.95    2.66
   3   5   8   89.23    3.10
  -3  -5  -8  107.43    2.87
  -3  -5  -8   84.85    2.58
  -3  -5  -8  106.87    2.71
  -3  -5  -8   84.17    2.59
  -3  -5  -9   13.66    1.14
  -3  -5  -9   14.23    1.12
  -3  -5  -9   14.67    1.15
   3   5   9   13.53    1.34
  -3  -5  -9   14.76    1.05
  -3  -5 -10    3.29    0.80
   3   5  10    3.91    1.03
  -3  -5 -10    3.62    0.78
  -3  -5 -10    3.47    0.63
  -3  -5 -11    3.58    0.72
   3   5  11    4.67    1.03
  -3  -5 -11    4.79    0.84
  -3  -5 -11    4.09    0.62
  -3  -5 -12    7.82    0.91
   3   5  12    8.42    1.11
  -3  -5 -12    6.23    0.76
   3   5  13    2.85    0.78
  -3  -5 -13    2.68    0.62
  -3  -5 -14   31.63    1.34
   3   5  14   33.88    1.57
  -3  -5 -15  230.57    3.97
  -3  -5 -15  198.51    3.97
   3   6 -10   13.08    0.73
  -3  -6   9  159.49    4.16
  -3  -6   9  164.05    3.83
  -3  -6   8    1.57    0.74
  -3  -6   8    1.36    0.86
  -3  -6   7  134.84    4.15
  -3  -6   7  131.44    3.98
  -3  -6   6  216.65    5.50
  -3  -6   6  208.83    5.35
   3   6  -5    6.72    0.85
  -3  -6   5    7.50    1.10
   3   6  -5    6.73    0.77
  -3  -6   5    7.86    1.10
   3   6  -4  413.61    7.61
  -3  -6   4  424.10    8.23
  -3  -6   4  427.82    7.99
  -3  -6   3    3.97    0.61
   3   6  -3    3.40    0.57
   3   6  -3    2.24    0.54
  -3  -6   3    1.36    0.65
  -3  -6   3    1.74    0.45
   3   6  -2   83.77    2.27
   3   6  -2   88.90    2.31
  -3  -6   2   85.23    2.67
  -3  -6   2   84.72    2.54
  -3  -6   1   21.71    1.20
  -3  -6   1   21.83    1.05
  -3  -6   1   23.15    1.43
  -3  -6   0    0.82    0.34
  -3  -6   0    0.62    0.49
  -3  -6   0    0.54    0.66
  -3  -6  -1  492.07    7.99
  -3  -6  -1  491.06    8.61
  -3  -6  -2  203.73    4.48
  -3  -6  -3  731.36   12.96
  -3  -6  -3  792.34   12.68
  -3  -6  -4  117.27    3.52
  -3  -6  -4  125.54    3.25
  -3  -6  -5   92.49    3.04
  -3  -6  -5  100.03    2.45
  -3  -6  -6  520.41    8.66
  -3  -6  -6  506.17    9.17
  -3  -6  -7    3.02    0.54
  -3  -6  -7    2.67    0.63
   3   6   7    2.82    0.65
  -3  -6  -7    3.35    0.54
   3   6   8    8.58    1.03
  -3  -6  -8    7.01    0.88
  -3  -6  -8    9.34    0.83
  -3  -6  -9  646.62   11.47
  -3  -6  -9  754.54   12.00
   3   6   9  697.68   12.58
  -3  -6  -9  605.43   11.12
   3   6  10   15.59    1.55
  -3  -6 -10   12.96    1.25
  -3  -6 -10   13.82    1.03
   3   6  11  110.77    3.91
  -3  -6 -11   99.74    3.28
   3   6  12   51.31    2.45
  -3  -6 -12   46.56    2.04
   3   6  13   44.07    2.01
  -3  -6 -13   37.97    1.65
  -3  -6 -14  164.03    3.59
   3   6  14  177.67    4.01
  -3  -6 -15   16.49    0.79
   3   7  -9    3.55    0.47
  -3  -7   9    3.13    0.63
  -3  -7   8  199.22    4.60
  -3  -7   8  180.68    4.22
  -3  -7   7   91.05    3.14
  -3  -7   7   87.76    2.96
  -3  -7   6   78.99    3.02
   3   7  -6   74.82    2.38
  -3  -7   6   77.82    3.01
   3   7  -5   22.41    1.36
  -3  -7   5   27.62    1.74
  -3  -7   5   24.69    1.72
   3   7  -4   31.57    1.58
  -3  -7   4   32.03    1.96
   3   7  -4   33.94    1.61
  -3  -7   4   35.15    1.93
  -3  -7   3  202.48    4.58
   3   7  -3  201.13    4.41
   3   7  -3  202.56    4.43
  -3  -7   3  197.14    4.86
  -3  -7   2    7.68    0.77
   3   7  -2    7.66    0.78
   3   7  -2    8.55    0.85
  -3  -7   2    7.81    1.00
  -3  -7   1    4.74    0.64
   3   7  -1    8.61    0.75
  -3  -7   1    8.72    0.92
  -3  -7   1    6.23    1.10
  -3  -7   0    9.40    0.96
  -3  -7   0    9.46    0.75
  -3  -7   0   10.90    0.78
   3   7   0    9.71    0.73
  -3  -7   0    9.75    0.76
  -3  -7  -1  677.26   10.80
  -3  -7  -1  643.53   11.33
  -3  -7  -1  662.64   10.71
  -3  -7  -1  642.10   10.68
  -3  -7  -2    2.46    0.44
  -3  -7  -2    2.27    0.47
  -3  -7  -2    2.48    0.45
  -3  -7  -2    2.16    0.66
  -3  -7  -2    2.25    0.76
  -3  -7  -3   41.46    1.90
  -3  -7  -4    7.17    1.02
  -3  -7  -4    8.23    0.68
  -3  -7  -4    7.22    0.97
  -3  -7  -5  329.08    7.28
  -3  -7  -5  339.27    6.14
  -3  -7  -5  346.57    6.75
  -3  -7  -6   57.30    1.82
   3   7   6   57.16    2.18
  -3  -7  -6   55.40    2.37
  -3  -7  -6   62.85    2.02
  -3  -7  -6   59.36    1.90
   3   7   6   59.21    2.08
  -3  -7  -7  109.43    2.84
   3   7   7  101.98    3.01
  -3  -7  -7  104.22    2.88
   3   7   7  101.39    3.17
  -3  -7  -7  112.32    2.93
  -3  -7  -7  110.10    2.92
   3   7   8   21.77    1.51
   3   7   8   21.02    1.39
  -3  -7  -8   24.70    1.40
  -3  -7  -8   23.98    1.35
  -3  -7  -8   25.53    1.33
  -3  -7  -8   23.01    1.34
   3   7   9   49.79    2.25
  -3  -7  -9   64.29    2.42
  -3  -7  -9   65.70    2.29
  -3  -7  -9   49.32    1.97
   3   7   9   61.38    2.69
   3   7  10   90.53    3.55
  -3  -7 -10   92.82    3.11
  -3  -7 -10   84.11    2.57
  -3  -7 -11    3.90    0.85
   3   7  11    5.53    1.15
   3   7  12    0.81    0.76
  -3  -7 -12    0.15    0.57
  -3  -7 -13    3.54    0.66
   3   7  13    4.42    0.82
  -3  -7 -13    3.84    0.66
   3   7  14   28.93    1.38
  -3  -7 -14   24.08    1.12
  -3  -8   8    0.26    0.44
  -3  -8   7   68.11    2.27
  -3  -8   7   63.98    2.12
  -3  -8   6  125.88    3.62
  -3  -8   6  126.87    3.66
  -3  -8   5   43.02    2.10
  -3  -8   5   42.67    2.03
   3   8  -5   39.54    1.66
   3   8  -4   27.14    1.49
  -3  -8   4   27.05    1.79
  -3  -8   4   28.36    1.76
  -3  -8   3  100.56    3.38
   3   8  -3  100.20    2.87
   3   8  -3   97.78    2.88
  -3  -8   3   94.87    3.20
  -3  -8   2    9.13    0.90
   3   8  -2    9.09    0.87
   3   8  -2    8.48    0.92
  -3  -8   2    9.39    1.07
  -3  -8   1  110.84    2.98
   3   8  -1  110.39    2.89
   3   8  -1  113.85    3.00
   3   8   0    0.18    0.41
  -3  -8   0    0.57    0.44
  -3  -8   0    0.57    0.47
  -3  -8   0    0.91    0.67
   3   8   1  108.95    2.86
  -3  -8  -1  115.51    2.92
  -3  -8  -1  106.93    3.35
  -3  -8  -1  114.93    2.89
  -3  -8  -1  120.39    3.73
  -3  -8  -1  117.10    2.91
   3   8   2   28.33    1.38
  -3  -8  -2   32.90    1.43
  -3  -8  -2   31.35    1.36
  -3  -8  -2   31.79    1.87
  -3  -8  -2   28.42    1.67
  -3  -8  -2   30.40    1.37
   3   8   3 1025.78   16.88
  -3  -8  -3 1015.88   17.57
  -3  -8  -4  940.60   15.79
  -3  -8  -4  958.14   14.75
   3   8   4  956.69   15.20
   3   8   5   17.41    1.20
  -3  -8  -5   15.95    1.47
  -3  -8  -5   17.51    1.03
  -3  -8  -5   17.73    1.40
   3   8   6  719.62   12.21
  -3  -8  -6  724.67   11.62
   3   8   7  162.03    4.27
   3   8   7  168.13    4.25
  -3  -8  -7  169.13    3.89
  -3  -8  -8    0.63    0.51
  -3  -8  -8    0.71    0.50
   3   8   8    0.10    0.60
   3   8   9  475.96    9.65
  -3  -8  -9  492.59    9.05
  -3  -8 -10    2.76    0.59
   3   8  10    2.46    0.71
   3   8  10    2.97    0.94
   3   8  11  141.56    4.42
   3   8  11  134.54    3.75
  -3  -8 -12    3.57    0.68
   3   8  12    4.83    0.96
   3   8  13    5.97    0.86
   3   8  14   13.51    0.92
  -3  -9   6   12.40    0.97
  -3  -9   6   11.92    0.99
   3   9  -5    4.19    0.63
  -3  -9   5    5.46    0.89
  -3  -9   5    4.78    0.82
  -3  -9   4    0.90    0.77
   3   9  -4    1.20    0.60
  -3  -9   4    0.71    0.67
   3   9  -3   26.83    1.39
   3   9  -3   22.62    1.37
  -3  -9   3   24.02    1.51
  -3  -9   3   24.34    1.69
  -3  -9   2    2.23    0.86
   3   9  -2    2.72    0.67
   3   9  -2    2.61    0.75
   3   9  -1  360.54    6.79
   3   9  -1  364.35    6.94
   3   9   0  295.78    5.87
   3   9   0  304.58    6.02
  -3  -9  -1  468.78    8.37
   3   9   1  476.09    8.29
   3   9   2  463.89    8.19
  -3  -9  -2  457.96    8.20
  -3  -9  -2  483.09    9.47
  -3  -9  -3   41.78    1.70
  -3  -9  -3   44.66    1.82
  -3  -9  -3   40.60    2.17
   3   9   3   42.08    1.77
  -3  -9  -3   42.53    2.27
   3   9   4    8.27    0.89
  -3  -9  -4    8.25    0.81
  -3  -9  -4    7.69    1.15
  -3  -9  -4    8.84    0.83
  -3  -9  -5  167.27    4.09
  -3  -9  -5  176.68    3.97
  -3  -9  -5  163.28    4.64
  -3  -9  -5  173.05    3.91
   3   9   5  175.71    4.28
   3   9   6   55.72    2.24
  -3  -9  -6   57.81    2.07
  -3  -9  -6   57.86    2.01
  -3  -9  -7   40.33    1.67
   3   9   7   38.17    1.89
  -3  -9  -7   35.10    1.99
  -3  -9  -8    1.35    0.53
   3   9   8    0.87    0.61
   3   9   9   24.54    1.65
  -3  -9  -9   22.70    1.28
   3   9  10   14.78    1.40
  -3  -9 -10   13.98    0.97
   3   9  11    1.67    0.78
   3   9  12    1.73    0.74
   3   9  13   26.35    1.41
   3   9  14   49.28    1.55
  -3 -10   5    0.85    0.52
   3  10  -4   44.79    1.48
   3  10  -4   38.75    1.33
  -3 -10   3    1.18    0.71
   3  10  -3    0.47    0.52
  -3 -10   2   74.53    2.72
   3  10  -2   70.23    2.32
   3  10  -1   11.49    0.97
  -3 -10   1   11.62    1.17
   3  10  -1   10.40    1.01
   3  10   0   64.43    2.18
   3  10   0   66.17    2.31
   3  10   1    4.49    0.71
   3  10   1    4.19    0.79
   3  10   2   35.93    1.60
  -3 -10  -2   36.33    1.61
  -3 -10  -3   96.14    2.72
   3  10   3   90.14    2.74
   3  10   4  246.17    5.32
  -3 -10  -4  245.01    5.16
  -3 -10  -4  246.55    5.12
   3  10   5    7.25    0.88
  -3 -10  -5    6.96    0.82
  -3 -10  -5    6.92    0.79
   3  10   6  342.88    7.00
  -3 -10  -6  353.01    6.65
  -3 -10  -6  345.77    6.66
   3  10   7   44.97    2.02
  -3 -10  -7   45.23    1.82
  -3 -10  -7   48.20    1.85
  -3 -10  -8  124.56    3.20
  -3 -10  -8  123.32    3.28
   3  10   8  121.70    3.57
   3  10   9   34.34    1.83
  -3 -10  -9   36.15    1.64
  -3 -10  -9   31.08    1.44
   3  10  10    2.16    0.75
  -3 -10 -10    2.78    0.65
   3  10  11   12.36    1.18
  -3 -10 -11    9.78    0.90
   3  10  12   52.01    2.05
  -3 -10 -12   41.29    1.58
  -3 -10 -13   21.76    0.95
   3  10  13   25.60    1.20
   3  11  -3   11.52    0.68
   3  11  -3   10.09    0.65
  -3 -11   3   11.91    0.94
  -3 -11   2   11.39    0.96
   3  11  -2    9.26    0.76
  -3 -11   1    2.34    0.77
   3  11  -1    1.89    0.55
   3  11  -1    1.20    0.60
   3  11   0  134.35    3.15
   3  11   0  122.49    3.20
  -3 -11   0  129.14    3.48
   3  11   1  117.41    3.20
   3  11   1  131.31    3.15
   3  11   2  653.15   10.85
   3  11   3  207.78    4.42
   3  11   3  192.35    4.44
   3  11   4   13.43    1.06
  -3 -11  -4   13.08    0.99
   3  11   5  234.88    5.07
  -3 -11  -5  246.96    4.99
   3  11   6    7.30    0.90
  -3 -11  -6    9.09    0.85
  -3 -11  -6    8.52    0.85
  -3 -11  -7    1.68    0.53
   3  11   7    1.79    0.62
  -3 -11  -7    1.36    0.51
  -3 -11  -8   40.86    1.64
   3  11   8   40.18    1.80
  -3 -11  -8   40.06    1.60
   3  11   9   94.34    2.85
  -3 -11  -9   99.14    2.63
  -3 -11 -10    4.66    0.65
   3  11  10    4.88    0.80
   3  11  11    4.40    0.75
  -3 -11 -11    3.92    0.57
   3  11  12   85.55    2.33
  -3 -11 -12   70.21    1.89
   3  12  -1    3.59    0.45
  -3 -12   1    4.74    0.60
  -3 -12   1    3.68    0.59
   3  12   0   47.88    1.49
  -3 -12   0   46.04    1.74
  -3 -12  -1  179.34    3.96
   3  12   1  175.36    3.61
   3  12   2   48.58    1.69
   3  12   3    1.16    0.48
   3  12   3    1.07    0.56
   3  12   4    4.06    0.71
   3  12   4    3.48    0.58
   3  12   5  312.40    5.65
   3  12   5  285.93    5.67
   3  12   6  362.88    6.46
  -3 -12  -6  368.43    6.35
  -3 -12  -7   23.40    1.11
   3  12   7   21.39    1.15
   3  12   7   21.43    1.17
   3  12   8    1.15    0.52
  -3 -12  -8    1.88    0.47
   3  12   9   12.36    0.94
  -3 -12  -9   13.25    0.83
   3  12  10   54.00    1.79
  -3 -12 -10   48.98    1.54
   3  12  11    1.03    0.43
  -3 -12 -11    1.06    0.32
  -3 -13  -2   33.38    1.28
   3  13   3   13.04    0.69
   3  13   3   10.75    0.73
   3  13   4  130.29    2.61
   3  13   4  116.65    2.69
   3  13   5  247.03    4.33
   3  13   5  232.26    4.46
   3  13   6   15.46    0.78
   3  13   6   14.97    0.87
   3  13   7   37.42    1.22
   3  13   7   34.41    1.27
   3  13   8   74.39    1.86
   3  13   9    6.00    0.55
  -4  10   9   21.10    0.94
  -4  10   8    0.54    0.42
  -4  10   7    7.68    0.67
  -4  10   7    8.28    0.59
  -4  10   6   11.21    0.75
  -4  10   6   11.16    0.67
  -4  10   5  118.66    2.61
  -4  10   4   30.48    1.12
  -4  10   3    2.34    0.42
   4 -10  -2  207.69    4.33
   4 -10  -1   18.24    1.00
  -4   9  11   85.13    2.07
  -4   9  10    5.78    0.70
  -4   9  10    5.99    0.65
  -4   9   9    5.39    0.69
  -4   9   8   37.28    1.64
  -4   9   8   39.35    1.60
  -4   9   7   82.37    2.51
  -4   9   7   87.54    2.50
  -4   9   6   95.89    2.63
  -4   9   6   92.74    2.67
  -4   9   5   13.72    1.02
  -4   9   5   14.04    0.99
  -4   9   4  200.99    4.30
  -4   9   4  205.90    4.27
  -4   9   3  258.53    5.03
  -4   9   2   20.56    1.08
  -4   9   1   55.03    1.65
  -4   9  -1  171.12    3.61
   4  -9   1  192.18    4.17
  -4   9  -2    4.28    0.52
   4  -9   2    4.67    0.63
  -4   8  12   51.54    1.62
  -4   8  11   43.87    1.61
  -4   8  11   47.41    1.78
  -4   8  10   18.70    1.27
  -4   8  10   19.42    1.19
  -4   8   9  104.10    2.97
  -4   8   9  106.02    3.17
  -4   8   8   27.11    1.57
  -4   8   7  149.04    3.92
  -4   8   6    1.89    0.70
  -4   8   5  119.84    3.37
  -4   8   5  128.08    3.49
  -4   8   4   75.57    2.53
  -4   8   4   78.88    2.57
  -4   8   3   46.18    1.90
  -4   8   3   47.83    1.94
  -4   8   2   43.64    1.79
  -4   8   2   46.98    1.84
  -4   8   1    1.44    0.60
  -4   8   0  254.40    4.95
  -4   8  -1   89.95    2.29
  -4   8  -1   79.22    2.32
  -4   8  -2   39.99    1.61
  -4   8  -2   36.68    1.41
  -4   8  -3   83.45    2.10
  -4   8  -3   80.80    2.22
  -4   8  -4    0.18    0.36
   4  -8   4   -0.01    0.46
  -4   7  12    0.05    0.49
  -4   7  12    0.17    0.40
  -4   7  11   83.65    2.56
  -4   7  11   82.44    2.77
  -4   7  10  186.34    4.43
  -4   7  10  180.58    4.71
  -4   7   9    0.73    0.54
  -4   7   9    0.60    0.70
  -4   7   8   45.02    1.91
  -4   7   8   45.55    2.13
  -4   7   7   70.55    2.63
  -4   7   6  123.03    3.52
  -4   7   6  113.01    3.49
  -4   7   5  101.41    3.11
  -4   7   5  105.08    3.26
  -4   7   4  274.34    5.80
  -4   7   4  264.85    5.91
  -4   7   3  331.73    6.76
  -4   7   3  327.35    6.64
  -4   7   2  306.78    6.24
  -4   7   2  304.72    6.26
  -4   7   1  560.54    9.73
  -4   7   1  546.14    9.71
  -4   7   0    5.37    0.81
  -4   7  -1  291.43    5.63
  -4   7  -1  288.06    5.95
  -4   7  -2   72.01    2.16
  -4   7  -2   71.43    2.32
  -4   7  -3   24.15    1.39
  -4   7  -3   24.52    1.28
   4  -7   3   24.52    1.76
  -4   7  -4    1.49    0.65
  -4   7  -4    1.79    0.63
  -4   7  -4    1.46    0.56
   4  -7   4    2.02    0.81
  -4   7  -5   78.55    2.07
   4  -7   5   83.80    2.38
  -4   7  -5   83.15    2.08
   4  -7   6    0.17    0.38
  -4   6  13    1.22    0.41
  -4   6  13    1.81    0.55
  -4   6  12  176.91    4.04
  -4   6  12  167.49    4.29
  -4   6  11   81.95    2.76
  -4   6  11   78.50    3.03
  -4   6  10    0.78    0.62
  -4   6   9   12.19    1.17
  -4   6   9   11.89    1.34
  -4   6   8   48.24    2.12
  -4   6   8   46.05    2.32
  -4   6   7    1.05    0.56
  -4   6   7    1.75    0.75
  -4   6   6  197.16    4.90
  -4   6   6  193.68    4.85
   4  -6  -6  203.06    4.55
  -4   6   5  216.92    5.13
  -4   6   5  202.03    4.91
   4  -6  -5  215.16    4.62
  -4   6   4  641.79   11.39
  -4   6   4  667.38   11.51
  -4   6   4  638.59   11.49
  -4   6   3   27.83    1.54
  -4   6   3   29.43    1.60
   4  -6  -3   25.50    1.26
  -4   6   3   26.43    1.57
  -4   6   2   59.05    2.15
   4  -6  -2   59.98    1.99
  -4   6   2   62.83    2.30
  -4   6   2   61.88    2.30
   4  -6  -1   21.19    1.16
  -4   6   1   23.05    1.35
  -4   6   1   22.96    1.42
  -4   6   1   23.38    1.39
  -4   6   0  647.87   10.82
  -4   6   0  663.74   10.94
  -4   6  -1  193.93    4.38
  -4   6  -1  189.40    4.10
  -4   6  -2  131.67    3.33
  -4   6  -2  131.87    3.23
  -4   6  -2  137.12    3.58
  -4   6  -3    4.25    0.73
  -4   6  -3    4.36    0.88
  -4   6  -3    4.41    0.80
  -4   6  -4    0.68    0.67
  -4   6  -4    1.17    0.63
   4  -6   4    1.04    1.00
  -4   6  -4    0.54    0.60
  -4   6  -5   30.85    1.48
   4  -6   5   33.13    1.81
  -4   6  -5   32.01    1.45
  -4   6  -5   32.95    1.56
  -4   6  -6    2.73    0.57
   4  -6   6    2.49    0.69
  -4   6  -6    2.07    0.65
   4  -6   7   22.01    1.06
  -4   6  -7   25.61    1.02
  -4   5  14   98.41    2.26
  -4   5  14  100.19    2.44
   4  -5 -13   57.70    1.61
  -4   5  13   65.39    2.01
   4  -5 -12   12.42    0.83
   4  -5 -11  125.57    3.12
  -4   5  11  159.51    3.95
  -4   5  10   42.56    2.17
  -4   5   9  499.80   10.03
  -4   5   8   26.48    1.83
   4  -5  -8   26.98    1.29
  -4   5   8   28.81    1.88
   4  -5  -8   24.78    1.39
  -4   5   7   25.70    1.67
  -4   5   7   27.47    1.81
   4  -5  -7   26.42    1.35
   4  -5  -7   29.24    1.41
  -4   5   6    4.48    0.77
  -4   5   6    3.86    0.74
   4  -5  -6    5.27    0.69
  -4   5   6    3.43    0.82
  -4   5   5  423.52    8.26
  -4   5   5  467.91    8.53
  -4   5   5  435.77    8.58
  -4   5   5  419.75    8.19
   4  -5  -5  456.32    7.87
  -4   5   4  589.61   10.33
  -4   5   4  578.83   10.25
  -4   5   4  595.57   10.61
  -4   5   3   51.09    2.10
  -4   5   3   46.77    1.67
  -4   5   3   51.95    2.08
   4  -5  -3   50.43    1.66
  -4   5   3   48.10    2.01
  -4   5   3   49.86    1.97
  -4   5   2  385.93    7.09
  -4   5   2  343.02    6.49
   4  -5  -2  361.65    6.42
  -4   5   2  358.46    7.06
  -4   5   2  374.39    7.12
  -4   5   1  692.70   11.56
  -4   5   1  666.30   11.22
   4  -5  -1  693.41   11.04
  -4   5   1  689.78   11.63
  -4   5   0    2.87    0.76
  -4   5   0    2.20    0.64
  -4   5   0    2.64    0.65
  -4   5  -1  924.91   14.82
  -4   5  -1  941.56   15.15
  -4   5  -1  920.22   15.02
  -4   5  -2  844.07   13.66
  -4   5  -2  812.25   13.58
  -4   5  -2  832.34   13.43
  -4   5  -3    0.53    0.63
  -4   5  -3    1.09    0.65
  -4   5  -3    0.24    0.64
  -4   5  -4  180.53    4.34
  -4   5  -4  177.34    4.09
  -4   5  -4  176.19    4.12
   4  -5   5   83.53    3.23
  -4   5  -5   83.53    2.54
  -4   5  -5   79.70    2.52
  -4   5  -5   83.47    2.69
  -4   5  -6    0.13    0.60
  -4   5  -6   -0.02    0.56
   4  -5   6    0.22    0.73
  -4   5  -6    0.21    0.77
   4  -5   7   14.05    1.10
  -4   5  -7   15.07    1.09
  -4   5  -8   44.33    1.48
   4  -4 -14   32.59    1.07
  -4   4  14   35.22    1.27
   4  -4 -13   18.49    0.95
   4  -4 -12   13.14    0.91
   4  -4 -11   31.14    1.39
  -4   4  11   36.79    1.90
   4  -4 -10    0.56    0.53
  -4   4  10    1.13    0.75
   4  -4  -9  197.50    4.30
  -4   4   9  209.67    5.59
   4  -4  -8   47.05    1.67
  -4   4   8   42.80    2.37
  -4   4   8   46.86    2.44
  -4   4   7   51.16    2.40
  -4   4   7   51.36    1.88
   4  -4  -7   52.06    1.86
  -4   4   7   53.48    2.48
   4  -4  -6  207.00    4.31
  -4   4   6  199.45    4.89
  -4   4   6  210.12    4.47
   4  -4  -6  189.29    4.29
  -4   4   6  203.37    5.08
  -4   4   6  199.78    4.85
  -4   4   5  287.57    6.05
  -4   4   5  337.03    6.19
   4  -4  -5  318.04    5.80
  -4   4   5  272.58    5.87
  -4   4   5  303.60    6.48
  -4   4   5  271.81    6.24
   4  -4  -5  312.71    5.56
  -4   4   4   75.17    2.39
   4  -4  -4   77.93    2.15
  -4   4   4   84.48    2.60
  -4   4   4   72.38    2.32
  -4   4   4   75.57    2.63
  -4   4   4   79.21    2.71
  -4   4   4   76.21    2.46
  -4   4   3  980.33   15.25
   4  -4  -3  938.58   14.60
  -4   4   3  960.68   15.38
  -4   4   3  971.21   15.53
  -4   4   3  919.80   15.29
  -4   4   3  946.57   15.08
  -4   4   2   72.81    2.28
  -4   4   2   75.01    2.29
  -4   4   2   73.54    2.41
   4  -4  -2   73.19    1.93
  -4   4   1  226.94    4.51
   4  -4  -1  232.46    4.33
  -4   4   1  240.23    5.00
   4  -4   0  728.03   10.97
  -4   4   0  705.68   11.44
  -4   4   0  713.72   11.27
  -4   4  -1  270.90    5.30
   4  -4   1  257.63    4.79
  -4   4  -1  267.84    5.38
  -4   4  -1  260.23    5.26
  -4   4  -2   25.17    1.30
  -4   4  -2   25.00    1.24
  -4   4  -2   24.10    1.20
  -4   4  -2   23.97    1.34
  -4   4  -2   24.56    1.36
  -4   4  -3  152.44    3.65
  -4   4  -3  155.36    3.72
  -4   4  -3  157.82    3.66
  -4   4  -3  166.06    3.84
  -4   4  -4  103.58    3.06
  -4   4  -4   95.30    2.84
  -4   4  -4  100.31    2.84
  -4   4  -4  100.67    2.87
  -4   4  -4   94.98    2.91
  -4   4  -4  100.45    2.88
  -4   4  -5  190.95    4.37
  -4   4  -5  184.35    4.28
  -4   4  -5  189.68    4.51
   4  -4   6    4.71    1.05
  -4   4  -6    2.04    0.76
  -4   4  -6    2.11    0.77
  -4   4  -6    1.62    0.72
  -4   4  -6    2.54    1.00
   4  -4   7   44.18    1.97
  -4   4  -7   45.03    1.75
  -4   4  -7   42.10    1.75
  -4   4  -7   40.13    1.73
  -4   4  -7   45.46    1.98
  -4   4  -8   25.78    1.42
   4  -4   8   24.26    1.30
  -4   4  -8   22.75    1.18
  -4   4  -9   99.17    2.43
  -4   4  -9   87.56    2.19
   4  -3 -14    8.90    0.62
   4  -3 -13    0.89    0.48
   4  -3 -12  206.44    4.32
  -4   3  12  225.92    5.01
   4  -3 -11   39.12    1.58
  -4   3  11   44.32    2.18
   4  -3 -10   77.17    2.29
  -4   3  10   85.38    3.29
   4  -3  -9  179.69    3.89
  -4   3   9  188.04    5.34
   4  -3  -8  461.77    7.78
   4  -3  -8  460.52    7.72
  -4   3   8  443.82    9.41
  -4   3   7  246.02    4.74
   4  -3  -7  244.26    4.80
  -4   3   7  238.29    5.92
  -4   3   6    4.16    0.73
  -4   3   6    5.99    0.65
   4  -3  -6    4.48    0.60
  -4   3   6    4.41    0.81
  -4   3   6    5.20    0.78
  -4   3   5   66.70    2.46
   4  -3  -5   62.66    1.96
  -4   3   5   66.75    2.28
  -4   3   4  134.34    3.32
   4  -3  -4  146.81    3.16
  -4   3   3   58.55    1.88
  -4   3   3   58.38    1.83
   4  -3  -2  711.86   11.07
  -4   3   2  714.96   11.40
   4  -3  -1   38.28    1.23
  -4   3   1   37.76    1.44
   4  -3   0  668.04   10.37
   4  -3   1  494.66    7.85
  -4   3  -2   25.97    1.21
  -4   3  -2   25.00    1.21
  -4   3  -2   25.92    1.14
  -4   3  -3   37.43    1.52
  -4   3  -3   38.06    1.62
  -4   3  -3   37.98    1.50
  -4   3  -3   37.00    1.50
  -4   3  -3   39.38    1.59
  -4   3  -4  329.90    6.32
  -4   3  -4  323.33    6.22
  -4   3  -4  338.96    6.57
  -4   3  -4  328.50    6.30
  -4   3  -4  337.15    6.48
  -4   3  -4  341.81    6.31
  -4   3  -5  134.13    3.45
  -4   3  -5  142.16    3.60
  -4   3  -5  132.23    3.44
  -4   3  -5  134.80    3.43
  -4   3  -5  139.17    3.67
  -4   3  -5  137.23    3.55
  -4   3  -6   68.66    2.37
  -4   3  -6   68.20    2.44
   4  -3   6   62.21    2.67
  -4   3  -6   67.96    2.51
  -4   3  -6   62.42    2.25
  -4   3  -7  273.89    5.64
  -4   3  -7  267.18    5.63
  -4   3  -7  274.09    5.82
  -4   3  -7  285.43    6.00
   4  -3   7  269.43    5.92
  -4   3  -8  117.22    3.02
  -4   3  -8  115.07    3.26
  -4   3  -8  108.32    3.08
  -4   3  -9  250.48    5.12
  -4   3  -9  268.60    5.30
  -4   3 -10   32.48    1.28
  -4   3 -10   31.17    1.24
   4  -2 -13  194.42    3.90
   4  -2 -12  109.47    2.80
  -4   2  12  118.31    3.46
   4  -2 -11    0.55    0.57
  -4   2  11    1.08    0.77
   4  -2 -10  321.82    6.07
  -4   2  10  340.78    7.73
   4  -2  -9   64.23    2.01
  -4   2   9   68.69    3.06
  -4   2   8   27.30    1.96
   4  -2  -8   25.99    1.20
   4  -2  -7   23.01    1.06
  -4   2   7   25.25    1.76
   4  -2  -7   23.53    1.11
  -4   2   6   10.49    1.02
  -4   2   6   10.67    1.11
   4  -2  -6   10.90    0.79
   4  -2  -5  323.22    6.20
  -4   2   5  395.16    6.87
  -4   2   4    2.65    0.48
   4  -2  -4    2.71    0.47
  -4   2   3  122.06    2.82
  -4   2   3  123.47    2.69
  -4   2   2   16.01    0.88
  -4   2   2   16.81    0.83
   4  -2  -2   17.06    0.78
   4  -2  -1  807.48   12.38
  -4   2   1  841.37   12.70
   4  -2   0 1042.86   15.47
  -4   2  -1  231.33    4.17
   4  -2   1  245.95    4.10
  -4   2  -2 2230.85   31.80
   4  -2   2 2165.18   31.39
  -4   2  -3  128.09    2.95
  -4   2  -3  143.07    3.20
  -4   2  -4    4.30    0.71
  -4   2  -4    2.92    0.58
  -4   2  -4    3.07    0.54
  -4   2  -4    3.89    0.61
  -4   2  -4    3.35    0.58
  -4   2  -5    1.55    0.65
  -4   2  -5    1.66    0.64
  -4   2  -5    1.15    0.50
  -4   2  -5    1.49    0.63
  -4   2  -5    1.31    0.57
  -4   2  -5    1.66    0.55
  -4   2  -5    1.68    0.61
  -4   2  -6  140.26    3.57
  -4   2  -6  146.58    3.72
  -4   2  -6  139.52    3.51
  -4   2  -6  146.54    3.85
  -4   2  -6  138.62    3.50
  -4   2  -6  141.90    3.58
  -4   2  -7  423.58    7.96
  -4   2  -7  440.22    8.07
  -4   2  -7  435.00    8.26
  -4   2  -8    0.87    0.65
  -4   2  -8    0.78    0.71
  -4   2  -9  534.35    9.12
  -4   2  -9  523.44    9.36
  -4   2 -10   51.12    1.84
  -4   2 -10   49.32    1.67
  -4   2 -10   48.87    1.81
  -4   2 -10   47.21    1.56
  -4   2 -11   60.44    1.73
  -4   2 -11   63.17    1.84
   4  -1 -13  154.09    3.30
  -4   1  13  166.40    3.77
  -4   1  12  145.87    4.07
  -4   1  11   87.14    3.28
   4  -1 -10  495.20    8.66
  -4   1  10  523.74   10.41
   4  -1  -9  458.47    7.95
  -4   1   9  474.22    9.88
   4  -1  -8   27.16    1.23
  -4   1   8   29.69    1.78
  -4   1   8   28.20    1.95
   4  -1  -7  196.24    3.87
   4  -1  -7  195.02    3.96
  -4   1   7  189.03    5.24
  -4   1   6  495.68    9.48
   4  -1  -6  489.21    8.13
   4  -1  -6  477.73    7.57
   4  -1  -5   46.20    1.28
   4  -1  -5   45.33    1.56
  -4   1   4  115.52    2.63
   4  -1  -4   94.67    2.43
  -4   1   3   39.40    1.31
  -4   1   2  124.17    2.67
  -4   1   2  124.34    2.50
   4  -1  -2  131.38    2.63
   4  -1  -1   32.59    1.05
  -4   1   1   36.26    1.10
  -4   1   0   52.70    1.27
   4  -1   0   58.29    1.40
  -4   1  -1  789.31   12.15
   4  -1   1  837.85   12.11
   4  -1   2  401.19    6.22
  -4   1  -2  396.55    6.54
  -4   1  -2  409.46    6.70
  -4   1  -3    8.97    0.64
  -4   1  -3    9.02    0.70
  -4   1  -4  634.97   10.14
  -4   1  -5  491.24    8.39
  -4   1  -5  488.96    8.31
  -4   1  -5  510.65    8.57
  -4   1  -5  482.27    8.23
  -4   1  -5  500.90    8.44
  -4   1  -5  473.81    8.30
  -4   1  -5  474.95    8.72
  -4   1  -6   48.13    1.88
  -4   1  -6   48.09    1.90
  -4   1  -6   47.45    1.75
  -4   1  -6   49.71    2.06
  -4   1  -6   50.26    1.91
  -4   1  -7   78.18    2.55
  -4   1  -7   82.06    2.58
  -4   1  -7   77.16    2.39
  -4   1  -7   83.96    2.77
  -4   1  -7   80.49    2.48
  -4   1  -7   79.49    2.63
  -4   1  -8  338.54    6.65
  -4   1  -8  352.44    6.96
  -4   1  -8  337.85    6.79
  -4   1  -9  405.53    7.72
  -4   1  -9  396.14    7.47
  -4   1  -9  415.14    7.80
  -4   1 -10  251.02    5.22
  -4   1 -10  242.33    4.95
  -4   1 -10  234.55    4.78
  -4   1 -10  245.88    5.22
  -4   1 -11  124.16    3.02
  -4   1 -11  129.94    2.97
  -4   1 -11  124.65    3.12
  -4   1 -12   84.08    2.10
  -4   1 -12   75.95    1.86
   4   0 -13    1.55    0.48
  -4   0  13    2.49    0.60
   4   0 -12   35.64    1.41
  -4   0  12   39.87    1.98
   4   0 -11   21.94    1.22
  -4   0  11   23.35    1.72
  -4   0  10   64.92    2.94
  -4   0   9    1.00    0.90
   4   0  -9    1.15    0.47
   4   0  -8  114.31    2.77
  -4   0   8  118.56    3.61
   4   0  -8  105.36    2.58
  -4   0   8  112.57    3.94
   4   0  -7   79.13    2.12
   4   0  -7   74.52    2.05
  -4   0   7   75.97    3.07
  -4   0   7   81.56    2.91
   4   0  -7   75.10    1.93
   4   0  -6  130.68    2.98
   4   0  -6  139.70    2.83
   4   0  -5    8.62    0.62
  -4   0   4    1.27    0.35
  -4   0   4    3.45    0.50
  -4   0   3  569.63    9.24
  -4   0   3  640.42    9.61
  -4   0   2    3.04    0.37
  -4   0   2    2.31    0.52
  -4   0   1 1491.74   20.89
  -4   0   1 1355.04   20.02
   4   0   0  364.36    5.69
  -4   0   0  346.64    5.41
  -4   0   0  351.27    5.76
   4   0   1  208.43    3.47
  -4   0  -1  200.23    3.52
  -4   0  -1  208.50    3.75
  -4   0  -1  205.55    3.82
  -4   0  -2  792.81   12.00
   4   0   2  797.34   11.67
  -4   0  -2  812.35   12.19
  -4   0  -2  785.31   12.03
  -4   0  -3  212.97    3.93
  -4   0  -3  218.04    4.04
  -4   0  -4   14.59    0.80
  -4   0  -4   13.92    0.83
  -4   0  -5  127.14    2.87
  -4   0  -6   95.71    2.65
  -4   0  -6  100.56    2.67
  -4   0  -6   98.34    2.69
  -4   0  -6   92.82    2.44
  -4   0  -6  101.28    2.93
  -4   0  -6  100.92    2.59
  -4   0  -7   75.54    2.42
  -4   0  -7   70.97    2.23
  -4   0  -7   76.83    2.59
  -4   0  -7   77.51    2.31
  -4   0  -7   75.79    2.44
  -4   0  -8  122.48    3.29
  -4   0  -8  123.91    3.25
  -4   0  -8  121.04    3.18
  -4   0  -8  127.67    3.53
  -4   0  -8  119.65    3.34
  -4   0  -9    5.84    0.86
  -4   0  -9    6.18    0.94
  -4   0  -9    6.21    0.92
  -4   0  -9    5.61    0.99
  -4   0 -10  262.65    5.48
  -4   0 -10  253.47    5.25
  -4   0 -10  252.55    5.50
  -4   0 -10  253.21    5.13
  -4   0 -11  176.03    4.14
  -4   0 -11  182.09    3.97
  -4   0 -11  180.78    4.04
  -4   0 -11  172.87    3.71
  -4   0 -12   42.38    1.48
  -4   0 -12   39.11    1.40
  -4   0 -13   47.81    1.34
   4   1 -13   27.29    1.00
  -4  -1  13   28.64    1.27
   4   1 -12    1.05    0.49
  -4  -1  12    0.98    0.68
   4   1 -11   12.31    0.91
  -4  -1  11   12.15    1.33
   4   1 -10   31.03    1.44
  -4  -1  10   32.99    2.13
  -4  -1  10   35.23    1.89
   4   1  -9   33.28    1.47
  -4  -1   9   32.24    2.08
  -4  -1   9   33.39    1.90
   4   1  -8    1.00    0.61
  -4  -1   8    1.02    0.71
  -4  -1   8    1.91    0.80
  -4  -1   8    0.96    0.84
   4   1  -8    0.82    0.48
  -4  -1   7    7.61    1.12
   4   1  -7    6.29    0.67
  -4  -1   7    6.54    0.95
   4   1  -6  261.14    4.78
  -4  -1   6  264.07    5.78
  -4  -1   5    6.48    0.59
  -4  -1   4    1.91    0.43
  -4  -1   4    1.84    0.42
  -4  -1   3  170.91    3.39
  -4  -1   3  163.88    3.29
  -4  -1   2 1692.01   24.12
  -4  -1   2 1583.07   23.83
  -4  -1   1   10.28    0.62
  -4  -1   1    8.00    0.34
  -4  -1   0 1145.90   17.19
  -4  -1   0 1115.97   16.55
  -4  -1   0 1138.08   16.44
  -4  -1  -1  967.22   15.01
  -4  -1  -1  988.44   14.34
  -4  -1  -1 1001.19   14.23
  -4  -1  -1  966.10   14.65
  -4  -1  -2   50.46    1.23
  -4  -1  -2   48.21    1.43
   4   1   2   50.69    1.12
  -4  -1  -3 1186.89   17.85
  -4  -1  -3 1136.89   17.85
  -4  -1  -4  519.47    8.70
  -4  -1  -4  579.06    8.90
  -4  -1  -5 1840.70   27.22
  -4  -1  -5 1864.24   27.23
  -4  -1  -6    6.65    0.64
  -4  -1  -6    5.77    0.62
  -4  -1  -7   92.44    2.67
  -4  -1  -7   93.26    2.55
  -4  -1  -7  100.01    2.59
  -4  -1  -7   95.00    2.64
  -4  -1  -7   93.54    2.89
  -4  -1  -8  187.55    4.31
  -4  -1  -8  174.99    4.04
  -4  -1  -8  178.11    4.22
  -4  -1  -8  191.08    4.53
  -4  -1  -8  185.30    4.06
  -4  -1  -8  187.71    4.22
  -4  -1  -9  301.90    6.12
  -4  -1  -9  309.47    6.05
  -4  -1  -9  303.15    6.29
  -4  -1  -9  295.83    6.06
  -4  -1  -9  301.57    5.89
  -4  -1 -10    1.45    0.62
   4   1  10    1.44    0.71
  -4  -1 -10    2.08    0.75
  -4  -1 -10    1.82    0.61
  -4  -1 -11  239.93    4.98
  -4  -1 -11  238.35    4.97
  -4  -1 -11  232.85    4.74
  -4  -1 -12   13.25    1.02
  -4  -1 -12   16.68    1.12
  -4  -1 -12   15.60    0.89
  -4  -1 -12   15.60    0.96
  -4  -1 -13   17.36    0.96
   4   2 -12    0.54    0.40
  -4  -2  12    0.69    0.61
   4   2 -11   34.69    1.35
  -4  -2  11   34.81    2.00
   4   2 -10   70.44    2.13
  -4  -2  10   72.29    3.08
  -4  -2  10   75.55    2.78
   4   2  -9   16.08    1.09
  -4  -2   9   15.24    1.41
  -4  -2   9   18.15    1.62
   4   2  -8  374.58    6.66
  -4  -2   8  386.01    7.85
  -4  -2   7   71.95    2.96
  -4  -2   7   76.90    2.81
  -4  -2   7   72.25    2.64
   4   2  -7   71.17    2.14
  -4  -2   6   49.89    2.31
  -4  -2   6   52.63    2.22
  -4  -2   6   48.84    2.35
  -4  -2   6   55.15    2.20
   4   2  -6   49.53    1.73
  -4  -2   5   73.43    2.66
  -4  -2   4    4.07    0.52
  -4  -2   4    3.22    0.53
  -4  -2   3  439.56    7.41
  -4  -2   3  433.65    7.32
  -4  -2   2  930.94   14.52
  -4  -2   2  955.53   14.24
  -4  -2   1  170.82    3.52
  -4  -2   1  163.22    3.05
  -4  -2   0    4.75    0.37
  -4  -2   0    6.99    0.32
  -4  -2  -1 1908.91   28.33
  -4  -2  -1 1928.74   27.51
  -4  -2  -1 1931.43   27.52
  -4  -2  -2    1.91    0.22
  -4  -2  -2    1.62    0.26
  -4  -2  -2    2.26    0.37
  -4  -2  -3  494.80    7.91
  -4  -2  -3  497.66    7.53
  -4  -2  -4   58.88    1.59
  -4  -2  -4   63.60    1.66
  -4  -2  -4   59.85    1.73
  -4  -2  -5  421.06    7.49
  -4  -2  -5  479.39    7.63
  -4  -2  -6  117.30    2.84
  -4  -2  -7   24.67    1.45
  -4  -2  -7   25.72    1.24
  -4  -2  -7   25.52    1.39
  -4  -2  -7   26.85    1.27
  -4  -2  -7   25.67    1.20
  -4  -2  -7   24.43    1.18
  -4  -2  -8    0.35    0.47
  -4  -2  -8    0.27    0.46
  -4  -2  -8    0.29    0.55
  -4  -2  -8    0.37    0.41
  -4  -2  -9  293.72    5.91
  -4  -2  -9  301.39    5.90
  -4  -2  -9  287.43    5.91
  -4  -2  -9  284.78    5.65
  -4  -2  -9  295.51    5.68
  -4  -2 -10  343.83    6.71
  -4  -2 -10  366.03    6.85
  -4  -2 -10  346.30    6.99
  -4  -2 -10  354.57    6.61
  -4  -2 -11   37.14    1.64
  -4  -2 -11   38.30    1.77
   4   2  11   35.96    1.85
  -4  -2 -11   37.06    1.77
  -4  -2 -11   38.04    1.60
  -4  -2 -12    1.42    0.51
  -4  -2 -12    0.49    0.61
   4   2  12    1.43    0.63
  -4  -2 -12    1.41    0.60
  -4  -2 -12    1.08    0.50
  -4  -2 -13   17.42    1.03
  -4  -2 -13   18.02    1.05
  -4  -2 -14  171.79    3.30
  -4  -2 -14  176.76    3.29
  -4  -3  12   47.61    1.77
   4   3 -11   97.90    2.30
  -4  -3  11  107.06    3.34
   4   3 -10   50.45    1.69
  -4  -3  10   54.04    2.57
  -4  -3  10   55.23    2.26
   4   3  -9   27.34    1.27
  -4  -3   9   25.84    1.72
   4   3  -8   95.36    2.56
  -4  -3   8   98.18    3.40
  -4  -3   7  862.08   14.74
  -4  -3   7  826.26   14.79
  -4  -3   7  870.87   14.60
   4   3  -7  824.21   13.43
  -4  -3   6   34.23    1.57
  -4  -3   6   33.17    1.79
  -4  -3   6   31.01    1.84
   4   3  -6   32.64    1.45
  -4  -3   5  101.62    2.83
  -4  -3   5   99.97    3.09
  -4  -3   5   97.64    3.21
  -4  -3   4  674.68   10.91
  -4  -3   3  583.13    9.36
  -4  -3   3  541.10    9.16
  -4  -3   2   17.98    1.01
  -4  -3   2   15.94    0.82
  -4  -3   1  160.62    3.00
  -4  -3   1  151.72    3.31
  -4  -3   0  880.55   13.11
  -4  -3  -1 1095.84   16.50
  -4  -3  -1 1066.85   15.73
  -4  -3  -2  121.45    2.84
  -4  -3  -2  125.44    2.32
  -4  -3  -2  122.99    2.35
  -4  -3  -3  608.90    9.71
  -4  -3  -3  594.88    9.12
  -4  -3  -3  624.76    9.40
  -4  -3  -4  118.73    2.54
  -4  -3  -4  106.41    2.46
  -4  -3  -5   53.73    1.63
  -4  -3  -5   45.94    1.55
  -4  -3  -6 1494.32   22.13
  -4  -3  -6 1427.08   21.89
  -4  -3  -7  119.36    3.25
  -4  -3  -7  116.28    2.84
  -4  -3  -7  125.89    3.19
  -4  -3  -7  117.60    2.92
  -4  -3  -8  187.75    4.30
  -4  -3  -8  174.92    3.93
  -4  -3  -8  186.06    4.25
  -4  -3  -8  181.44    3.96
  -4  -3  -8  176.45    4.40
  -4  -3  -8  182.99    3.94
  -4  -3  -8  167.22    3.75
  -4  -3  -9 1142.83   18.06
  -4  -3  -9 1131.15   17.68
  -4  -3  -9 1126.54   18.36
  -4  -3  -9 1137.53   17.65
  -4  -3 -10  601.00   10.22
  -4  -3 -10  600.42   10.33
  -4  -3 -10  586.55   10.56
  -4  -3 -10  598.92   10.07
  -4  -3 -11    2.10    0.58
  -4  -3 -11    0.52    0.67
   4   3  11    1.23    0.64
  -4  -3 -11    1.53    0.68
  -4  -3 -11    1.43    0.58
  -4  -3 -12    6.65    0.90
  -4  -3 -12    6.18    0.81
   4   3  12    6.46    0.87
  -4  -3 -12    6.44    0.75
  -4  -3 -12    7.14    0.73
  -4  -3 -13    0.13    0.57
  -4  -3 -13    0.59    0.48
  -4  -3 -13    0.68    0.47
  -4  -3 -14  110.58    2.46
  -4  -3 -14  110.17    2.52
  -4  -4  11    9.36    0.98
   4   4 -10    0.39    0.41
  -4  -4  10    0.14    0.56
  -4  -4  10    1.37    0.85
   4   4  -9   11.28    0.86
  -4  -4   9   13.32    1.26
  -4  -4   9   11.45    1.07
   4   4  -8  297.48    5.59
  -4  -4   8  305.73    7.15
  -4  -4   8  314.88    6.95
  -4  -4   7  123.64    3.87
  -4  -4   7  116.65    3.87
   4   4  -7  117.55    3.03
  -4  -4   7  126.62    3.90
  -4  -4   6  244.36    5.22
  -4  -4   6  241.30    5.67
  -4  -4   6  239.49    5.76
   4   4  -6  228.15    4.84
  -4  -4   5  206.61    4.64
  -4  -4   5  206.82    4.68
  -4  -4   5  195.26    4.85
  -4  -4   5  188.76    4.86
  -4  -4   4   16.79    1.12
  -4  -4   4   15.29    1.12
  -4  -4   4   16.15    1.27
  -4  -4   4   16.91    0.90
  -4  -4   3    3.49    0.57
  -4  -4   3    3.84    0.63
  -4  -4   2 1203.60   18.34
  -4  -4   1 1846.33   26.62
  -4  -4   1 1792.50   26.98
  -4  -4   0 1042.57   15.52
  -4  -4   0 1038.07   16.15
  -4  -4  -1    2.60    0.37
  -4  -4  -2   43.57    1.24
  -4  -4  -2   42.42    1.66
  -4  -4  -3    5.75    0.76
  -4  -4  -3    4.82    0.43
  -4  -4  -4   82.71    2.31
  -4  -4  -5 1431.80   20.68
  -4  -4  -5 1323.42   20.53
  -4  -4  -6 1056.13   16.36
  -4  -4  -7   32.50    1.41
  -4  -4  -7   32.98    1.55
  -4  -4  -8    6.75    0.76
  -4  -4  -8    6.23    0.73
  -4  -4  -8    5.25    0.77
  -4  -4  -9  462.74    8.53
  -4  -4  -9  470.62    9.05
  -4  -4  -9  491.00    8.47
  -4  -4  -9  487.43    8.77
  -4  -4 -10   31.04    1.60
   4   4  10   28.29    1.79
  -4  -4 -10   27.31    1.63
  -4  -4 -10   31.11    1.49
  -4  -4 -10   30.31    1.51
  -4  -4 -11    2.15    0.56
  -4  -4 -11    2.45    0.71
  -4  -4 -11    2.02    0.63
   4   4  11    2.53    0.74
  -4  -4 -12  280.75    5.69
  -4  -4 -12  263.52    5.48
  -4  -4 -12  254.81    5.49
   4   4  12  271.13    5.94
  -4  -4 -12  265.88    5.20
  -4  -4 -13   66.96    2.07
  -4  -4 -13   66.69    2.14
   4   4  13   70.67    2.36
  -4  -4 -14   15.13    0.89
  -4  -5  11    0.98    0.47
   4   5 -10   20.28    0.94
  -4  -5  10   20.18    1.13
  -4  -5   9    0.62    0.67
  -4  -5   9    1.09    0.85
   4   5  -8  120.10    2.74
  -4  -5   8  125.47    4.06
  -4  -5   8  123.78    3.81
   4   5  -7  439.46    7.68
  -4  -5   7  462.53    9.38
  -4  -5   7  467.33    9.27
  -4  -5   6  293.39    6.06
  -4  -5   6  306.92    6.77
  -4  -5   6  290.19    6.68
   4   5  -6  276.41    5.63
  -4  -5   5   13.67    1.16
  -4  -5   5   16.26    1.29
  -4  -5   5   18.18    1.48
  -4  -5   5   19.01    1.48
  -4  -5   4  385.99    7.73
  -4  -5   4  396.87    8.02
  -4  -5   4  402.52    7.12
  -4  -5   3    8.41    0.79
  -4  -5   3    8.22    0.89
  -4  -5   3    7.51    0.94
  -4  -5   3    8.36    0.67
  -4  -5   2  929.18   13.97
  -4  -5   2  850.40   14.05
  -4  -5   1  554.36    9.48
  -4  -5   0   35.37    1.25
  -4  -5   0   35.30    1.49
  -4  -5  -1    6.96    0.80
  -4  -5  -1    7.27    0.57
  -4  -5  -2  182.97    3.53
  -4  -5  -2  174.37    4.09
  -4  -5  -3  169.98    3.34
  -4  -5  -3  158.28    4.04
  -4  -5  -4  262.51    5.55
  -4  -5  -5 1091.98   17.12
  -4  -5  -6  423.23    7.59
  -4  -5  -6  450.68    7.41
  -4  -5  -7   57.48    2.02
  -4  -5  -7   72.49    2.26
  -4  -5  -7   70.57    2.23
  -4  -5  -7   58.79    2.07
  -4  -5  -7   76.22    2.33
  -4  -5  -8 1182.21   19.19
  -4  -5  -8 1360.43   19.79
  -4  -5  -8 1313.81   19.78
  -4  -5  -8 1141.72   19.38
  -4  -5  -9  552.48    9.64
  -4  -5  -9  536.81   10.01
  -4  -5  -9  556.99   10.15
  -4  -5  -9  560.80    9.64
  -4  -5  -9  532.70    9.77
  -4  -5 -10  159.04    4.00
   4   5  10  152.53    4.55
  -4  -5 -10  150.61    4.12
  -4  -5 -10  155.48    4.24
  -4  -5 -10  166.46    3.90
  -4  -5 -10  164.84    3.98
  -4  -5 -11   61.43    2.27
   4   5  11   62.83    2.66
  -4  -5 -11   58.26    2.26
  -4  -5 -11   58.29    2.35
  -4  -5 -11   59.39    2.06
   4   5  12   27.80    1.66
  -4  -5 -12   26.42    1.40
  -4  -5 -12   24.96    1.45
  -4  -5 -12   26.84    1.26
   4   5  13   18.65    1.23
  -4  -5 -13   15.40    1.05
  -4  -6  10   55.99    1.87
  -4  -6   9   21.91    1.25
  -4  -6   9   22.89    1.46
  -4  -6   8    0.44    0.70
  -4  -6   8    0.04    0.81
  -4  -6   7    3.13    0.94
  -4  -6   7    2.94    1.02
  -4  -6   6   45.36    2.36
  -4  -6   6   43.75    2.34
  -4  -6   5   31.71    1.71
  -4  -6   5   29.27    1.73
   4   6  -5   29.38    1.46
  -4  -6   5   29.70    1.95
  -4  -6   5   29.55    1.86
   4   6  -5   29.08    1.47
  -4  -6   4   10.40    1.17
  -4  -6   4    9.48    1.01
  -4  -6   4   11.27    1.19
  -4  -6   3  253.26    5.61
  -4  -6   3  253.92    5.78
  -4  -6   3  247.81    4.92
  -4  -6   2  187.73    4.06
  -4  -6   2  186.01    4.31
  -4  -6   2  200.02    4.33
  -4  -6   2  188.49    3.80
  -4  -6   1 1188.58   17.86
  -4  -6   1 1134.66   18.38
  -4  -6   0 1198.68   18.76
  -4  -6  -1   60.29    1.77
  -4  -6  -1   56.23    2.07
  -4  -6  -2    2.20    0.44
  -4  -6  -2    2.37    0.90
  -4  -6  -3    3.42    0.83
  -4  -6  -3    3.01    0.48
  -4  -6  -3    3.44    0.97
  -4  -6  -4  151.52    4.22
  -4  -6  -4  154.45    4.04
  -4  -6  -5    1.88    0.76
  -4  -6  -6  396.90    7.26
  -4  -6  -6  419.12    7.74
  -4  -6  -6  392.36    7.25
  -4  -6  -6  402.73    7.21
  -4  -6  -6  429.49    7.57
  -4  -6  -7    4.57    0.71
  -4  -6  -7    5.40    0.69
  -4  -6  -7    5.39    0.64
  -4  -6  -8    2.17    0.59
  -4  -6  -8    2.47    0.70
  -4  -6  -8    2.11    0.64
  -4  -6  -9   43.74    1.92
  -4  -6  -9   47.87    2.14
  -4  -6 -10  329.05    6.78
   4   6  10  319.33    7.51
  -4  -6 -10  348.80    7.23
  -4  -6 -10  342.48    6.70
  -4  -6 -11    8.44    1.00
   4   6  11    9.77    1.21
  -4  -6 -11    9.46    1.10
  -4  -6 -11   10.05    0.88
   4   6  12  270.29    6.07
  -4  -6 -12  255.19    5.05
  -4  -6 -13    0.41    0.38
   4   6  13    0.05    0.53
  -4  -6 -14   12.76    0.88
  -4  -7   9   13.14    0.93
   4   7  -9   11.13    0.64
  -4  -7   8   22.46    1.32
  -4  -7   8   22.54    1.44
  -4  -7   7    2.52    0.84
  -4  -7   7    3.12    0.91
  -4  -7   7    2.69    0.82
  -4  -7   6    5.21    1.06
  -4  -7   6    5.71    1.04
   4   7  -5   57.17    2.03
  -4  -7   5   59.24    2.74
  -4  -7   5   60.61    2.65
   4   7  -4   46.86    1.87
  -4  -7   4   44.95    2.19
  -4  -7   4   45.66    2.26
  -4  -7   3  164.25    4.10
   4   7  -3  162.54    3.81
  -4  -7   3  166.11    4.40
  -4  -7   3  164.48    4.40
  -4  -7   2 1395.87   21.09
  -4  -7   2 1340.59   21.28
   4   7  -2 1386.20   20.80
  -4  -7   2 1336.43   20.44
  -4  -7   1 1597.37   23.64
  -4  -7   1 1587.66   24.41
  -4  -7   1 1527.00   23.07
  -4  -7   0   75.93    2.23
  -4  -7   0   72.03    2.52
  -4  -7   0   72.70    2.12
  -4  -7   0   71.71    2.08
  -4  -7   0   71.39    1.91
  -4  -7  -1   31.70    1.63
  -4  -7  -1   32.53    1.33
  -4  -7  -1   33.83    1.32
  -4  -7  -1   32.53    1.23
  -4  -7  -2   45.51    1.64
  -4  -7  -2   40.04    1.48
  -4  -7  -2   45.67    2.20
  -4  -7  -2   43.42    1.98
  -4  -7  -2   39.77    1.46
  -4  -7  -3  458.98    9.10
  -4  -7  -3  436.38    7.88
  -4  -7  -3  453.01    7.91
  -4  -7  -4   57.17    1.87
  -4  -7  -4   51.91    2.51
  -4  -7  -4   63.61    2.64
  -4  -7  -4   56.44    1.84
  -4  -7  -4   66.06    2.04
  -4  -7  -5   11.16    0.83
  -4  -7  -5    9.43    1.27
  -4  -7  -5   11.12    0.83
  -4  -7  -5   11.57    0.85
  -4  -7  -6   36.08    1.49
  -4  -7  -6   32.63    1.87
  -4  -7  -6   35.32    1.48
  -4  -7  -6   35.42    1.56
  -4  -7  -7  275.70    5.60
  -4  -7  -7  274.93    5.71
  -4  -7  -7  279.39    5.63
  -4  -7  -8 1096.49   17.72
  -4  -7  -8 1093.67   17.88
  -4  -7  -8 1150.83   17.86
  -4  -7  -8 1087.54   17.68
  -4  -7  -8 1163.09   18.13
  -4  -7  -9  100.37    3.07
   4   7   9   92.10    3.32
  -4  -7  -9  102.78    3.23
  -4  -7  -9   87.21    2.85
  -4  -7  -9  108.82    3.34
  -4  -7 -10  140.17    3.87
  -4  -7 -10  142.28    3.70
   4   7  10  142.30    4.44
  -4  -7 -11  294.14    5.71
   4   7  11  292.20    6.79
  -4  -7 -11  286.96    6.46
  -4  -7 -12    0.83    0.62
  -4  -7 -12    0.22    0.37
   4   7  12    0.16    0.64
  -4  -7 -13  297.08    5.82
  -4  -7 -13  285.25    5.83
  -4  -7 -14   78.19    2.10
  -4  -8   7   85.08    2.60
  -4  -8   7   80.41    2.41
  -4  -8   7   87.07    2.68
  -4  -8   6   57.92    2.40
  -4  -8   6   58.07    2.38
   4   8  -5   38.64    1.59
  -4  -8   5   40.25    2.06
   4   8  -4  421.91    7.73
  -4  -8   4  415.48    8.43
   4   8  -3  686.40   11.36
   4   8  -3  687.64   11.33
  -4  -8   3  654.36   12.06
  -4  -8   3  651.22   12.05
  -4  -8   2    3.13    0.86
  -4  -8   2    3.03    0.65
   4   8  -2    3.11    0.64
   4   8  -2    3.15    0.70
  -4  -8   1  250.04    5.22
   4   8  -1  254.85    5.01
   4   8  -1  245.66    5.07
  -4  -8   0    8.59    0.85
  -4  -8   0    6.11    0.94
  -4  -8   0    7.22    0.76
  -4  -8  -1   48.53    1.78
  -4  -8  -1   42.35    2.05
  -4  -8  -1   44.75    1.67
  -4  -8  -1   46.50    1.71
  -4  -8  -2  177.30    4.02
  -4  -8  -2  181.95    3.92
  -4  -8  -2  190.41    5.06
  -4  -8  -2  180.26    3.94
  -4  -8  -3   17.65    1.06
  -4  -8  -3   19.96    1.66
  -4  -8  -3   19.55    1.17
  -4  -8  -3   19.67    1.10
  -4  -8  -4   98.71    3.63
  -4  -8  -4  108.48    2.87
  -4  -8  -4  106.51    3.74
  -4  -8  -5  288.89    7.31
  -4  -8  -5  315.33    6.08
  -4  -8  -6  334.35    6.21
  -4  -8  -6  319.38    7.32
  -4  -8  -6  324.50    6.23
  -4  -8  -6  327.16    6.21
  -4  -8  -7  263.95    5.24
   4   8   7  249.80    5.58
  -4  -8  -7  268.54    5.39
  -4  -8  -7  264.98    5.34
  -4  -8  -8   23.30    1.29
   4   8   8   22.92    1.51
  -4  -8  -8   26.22    1.42
  -4  -8  -8   24.76    1.38
  -4  -8  -9  586.95   10.00
   4   8   9  541.62   10.58
  -4  -8  -9  521.25    9.87
  -4  -8  -9  606.42   10.33
   4   8  10  102.15    3.56
  -4  -8 -10   96.26    2.92
   4   8  11  157.20    4.52
  -4  -8 -11  155.23    3.64
  -4  -8 -11  154.15    4.15
   4   8  12   80.20    2.81
  -4  -8 -12   68.86    2.43
   4   8  13   42.80    1.73
  -4  -8 -13   35.38    1.47
  -4  -8 -14    1.72    0.36
  -4  -9   6    0.48    0.56
  -4  -9   6    1.49    0.57
  -4  -9   6    0.89    0.58
  -4  -9   5   71.53    2.44
  -4  -9   4    0.84    0.82
   4   9  -4    0.93    0.51
  -4  -9   4    2.01    0.74
   4   9  -3   20.89    1.25
   4   9  -3   19.01    1.21
   4   9  -2   24.55    1.33
  -4  -9   2   24.94    1.69
   4   9  -2   26.93    1.42
   4   9  -1  146.51    3.53
  -4  -9   1  147.63    4.00
   4   9  -1  149.93    3.65
   4   9   0 1032.47   16.54
   4   9   0 1072.65   16.67
  -4  -9  -1  111.00    3.07
   4   9   1  105.04    2.78
  -4  -9  -1   99.16    3.43
  -4  -9  -1  105.68    2.86
   4   9   2   28.53    1.36
  -4  -9  -2   28.36    1.43
  -4  -9  -2   27.43    1.80
  -4  -9  -2   30.20    1.42
  -4  -9  -2   31.89    2.17
  -4  -9  -2   31.60    1.47
   4   9   3  167.83    3.93
  -4  -9  -3  183.24    4.22
  -4  -9  -3  172.72    3.98
  -4  -9  -3  178.29    5.17
  -4  -9  -3  176.67    4.04
   4   9   4   15.85    1.09
  -4  -9  -4   12.08    1.44
  -4  -9  -4   15.41    1.09
  -4  -9  -4   16.18    1.70
   4   9   5  154.02    3.83
  -4  -9  -5  151.29    3.72
  -4  -9  -5  149.43    3.64
  -4  -9  -6   88.05    2.78
  -4  -9  -6   84.95    2.60
   4   9   6   85.71    2.75
  -4  -9  -6   87.93    2.58
   4   9   7   17.78    1.28
  -4  -9  -7   20.26    1.22
  -4  -9  -8    3.66    0.69
   4   9   8    4.28    0.77
   4   9   9   13.21    1.20
  -4  -9  -9   12.59    1.03
   4   9  10   24.16    1.60
  -4  -9 -10   21.27    1.25
   4   9  11   34.28    1.88
  -4  -9 -11   35.56    1.45
   4   9  12  102.42    3.08
   4   9  13   83.64    2.34
  -4 -10   5   -0.11    0.52
   4  10  -4  265.92    4.91
  -4 -10   4  307.17    5.91
   4  10  -3  109.48    2.76
  -4 -10   3  120.38    3.47
   4  10  -2   18.71    1.11
   4  10  -2   14.90    1.06
   4  10  -1  174.91    3.97
  -4 -10   1  181.49    4.49
   4  10   0   14.40    1.03
  -4 -10   0   14.62    1.24
   4  10   0   16.06    1.16
   4  10   1  119.72    3.04
   4  10   1  118.68    3.20
   4  10   2    1.59    0.53
  -4 -10  -2    1.72    0.57
   4  10   3    4.18    0.67
  -4 -10  -3    4.46    0.71
  -4 -10  -3    4.36    0.73
   4  10   4    1.53    0.57
  -4 -10  -4    1.59    0.58
   4  10   5   52.46    2.03
  -4 -10  -5   52.62    1.97
   4  10   6  146.08    3.77
  -4 -10  -6  144.19    3.54
   4  10   7  153.34    3.97
  -4 -10  -7  162.25    3.83
   4  10   8  127.88    3.60
  -4 -10  -8  129.08    3.41
  -4 -10  -8  139.15    3.47
   4  10   9  447.55    8.79
  -4 -10  -9  461.29    8.36
   4  10  10  127.66    3.61
  -4 -10 -10  123.24    3.09
   4  10  11   26.24    1.50
  -4 -10 -11   25.72    1.13
   4  10  12  254.24    5.17
  -4 -10 -13    2.72    0.44
  -4 -11   3   21.27    1.18
   4  11  -2  134.12    2.90
  -4 -11   2  136.21    3.51
   4  11  -1   22.54    1.12
   4  11  -1   18.67    1.11
   4  11   0  315.98    5.98
   4  11   0  309.71    6.06
   4  11   1    8.07    0.79
  -4 -11  -1    8.73    1.01
   4  11   1    7.46    0.90
   4  11   2    7.08    0.75
   4  11   2    4.97    0.83
   4  11   3    0.50    0.48
   4  11   4    2.20    0.57
   4  11   5   76.51    2.38
  -4 -11  -5   81.30    2.42
   4  11   6   71.28    2.32
  -4 -11  -6   69.82    2.28
  -4 -11  -6   74.15    2.34
   4  11   7   34.81    1.61
  -4 -11  -7   37.11    1.59
  -4 -11  -7   36.29    1.57
   4  11   8   25.81    1.40
  -4 -11  -8   26.02    1.34
  -4 -11  -8   27.60    1.36
   4  11   9    6.12    0.79
  -4 -11  -9    6.39    0.76
  -4 -11  -9    5.43    0.69
  -4 -11 -10   36.73    1.56
   4  11  10   34.27    1.59
   4  11  11   28.32    1.34
  -4 -11 -11   22.71    1.20
  -4 -11 -12   12.10    0.77
  -4 -11 -13   47.52    1.26
  -4 -12   1  359.08    6.32
  -4 -12   0   80.22    2.32
   4  12   0   76.97    2.08
   4  12   1   20.33    0.98
  -4 -12  -1   18.67    1.23
   4  12   1   16.43    1.01
   4  12   2   26.17    1.17
   4  12   2   25.74    1.29
  -4 -12  -2   27.41    1.41
   4  12   3    0.34    0.41
   4  12   4    1.02    0.44
   4  12   4    0.80    0.56
   4  12   5    5.12    0.63
  -4 -12  -5    5.11    0.64
   4  12   6   74.52    2.14
  -4 -12  -6   79.19    2.19
   4  12   7   91.26    2.44
  -4 -12  -7   95.83    2.48
  -4 -12  -8  103.78    2.55
   4  12   8   90.83    2.51
  -4 -12  -9  102.10    2.52
   4  12   9   90.33    2.44
   4  12  10    2.58    0.49
  -4 -12 -10    4.47    0.56
  -4 -12 -11  118.92    2.61
  -4 -13  -2   88.26    2.23
   4  13   2   78.58    1.96
  -4 -13  -3    9.58    0.90
  -4 -13  -3   11.47    0.85
  -4 -13  -4   20.93    1.05
   4  13   4   19.75    0.98
   4  13   5   23.40    0.93
   4  13   5   24.18    1.10
   4  13   6    9.26    0.60
   4  13   6    8.59    0.73
   4  13   7   27.09    1.15
   4  13   8  113.07    2.57
  -4 -13  -8  121.33    2.54
  -4 -13  -9   38.42    1.16
  -4 -13  -9   24.40    1.20
  -5   9   9    0.15    0.39
  -5   9   9    0.21    0.34
  -5   9   8    1.81    0.44
  -5   9   7    9.67    0.73
  -5   9   7    8.49    0.77
  -5   9   6  122.00    2.78
  -5   9   6  117.37    2.80
  -5   9   5  135.97    3.05
  -5   9   5  143.00    3.09
  -5   9   4   10.16    0.76
  -5   9   3   12.25    0.79
  -5   9   2  106.13    2.36
  -5   9   1   19.38    0.97
  -5   9   1   19.69    0.83
  -5   9   0    0.57    0.39
   5  -9   0    0.43    0.55
  -5   8  11    0.94    0.38
  -5   8  10   73.47    2.06
  -5   8  10   72.42    2.00
  -5   8  10   74.26    2.19
  -5   8   9  125.42    3.18
  -5   8   9  125.99    3.05
  -5   8   9  128.14    3.24
  -5   8   8    0.82    0.62
  -5   8   8    1.42    0.60
  -5   8   8    1.46    0.53
  -5   8   7  110.96    3.12
  -5   8   7  122.77    3.18
  -5   8   6   31.61    1.52
  -5   8   5   30.00    1.48
  -5   8   5   32.24    1.50
  -5   8   4   19.98    1.21
  -5   8   4   21.62    1.26
  -5   8   3    0.53    0.57
  -5   8   3    0.44    0.52
  -5   8   2   26.58    1.29
  -5   8   1    2.13    0.59
  -5   8   0   13.34    0.99
  -5   8   0   13.03    0.86
  -5   8  -1   49.47    1.51
  -5   8  -2    1.02    0.49
   5  -8   2    1.15    0.66
  -5   8  -3  107.32    2.30
   5  -8   3  112.16    2.56
  -5   7  11   19.54    1.15
  -5   7  10    1.60    0.63
  -5   7  10    1.99    0.67
  -5   7   9   49.51    2.10
  -5   7   9   46.73    2.07
  -5   7   8  110.73    3.30
  -5   7   8  107.02    3.28
  -5   7   7   11.75    1.07
  -5   7   7   11.28    1.12
  -5   7   6   54.98    2.17
  -5   7   6   52.36    2.18
  -5   7   6   47.55    2.12
  -5   7   5   78.04    2.61
  -5   7   5   72.10    2.58
  -5   7   4  108.61    3.22
  -5   7   3   29.67    1.55
  -5   7   3   33.02    1.66
  -5   7   2  249.96    5.29
  -5   7   2  249.01    5.33
  -5   7   1  121.34    2.93
  -5   7   1  122.86    3.25
  -5   7   1  130.73    3.37
  -5   7   0    7.04    0.83
  -5   7  -1   30.92    1.40
  -5   7  -1   32.43    1.58
  -5   7  -2  258.99    4.94
  -5   7  -3    2.01    0.63
  -5   7  -3    1.23    0.50
   5  -7   3    1.03    0.75
  -5   7  -4   19.78    0.99
   5  -7   4   21.65    1.17
  -5   7  -4   20.28    1.00
  -5   6  12    4.84    0.52
  -5   6  12    4.43    0.67
  -5   6  11    1.39    0.49
  -5   6  11    1.16    0.65
  -5   6  10  167.98    3.99
  -5   6  10  167.09    4.53
  -5   6   9   25.07    1.72
  -5   6   8    3.50    0.86
  -5   6   7  156.55    4.33
  -5   6   6   53.04    2.31
  -5   6   5    3.38    0.84
  -5   6   5    4.12    0.85
  -5   6   4   55.23    2.26
  -5   6   4   59.45    2.36
  -5   6   4   55.44    2.32
  -5   6   3   44.61    1.85
  -5   6   3   49.23    2.11
  -5   6   2   53.62    2.11
  -5   6   2   59.02    2.24
  -5   6   2   58.77    2.26
  -5   6   1    1.25    0.79
  -5   6   1    0.76    0.67
  -5   6   1    0.91    0.71
  -5   6   0   64.93    2.25
  -5   6   0   65.19    2.30
  -5   6  -1    2.01    0.70
  -5   6  -1    1.78    0.59
  -5   6  -2   43.52    1.74
  -5   6  -2   44.31    1.95
  -5   6  -2   43.57    1.67
  -5   6  -2   42.37    1.85
  -5   6  -3  217.49    4.62
  -5   6  -3  226.40    4.77
  -5   6  -4   29.38    1.33
  -5   6  -4   32.69    1.54
  -5   6  -5   88.87    2.38
  -5   6  -5   84.92    2.12
   5  -6   5   89.36    2.57
  -5   6  -5   89.95    2.38
   5  -6   6   15.46    0.88
  -5   6  -6   17.45    0.88
  -5   5  13   14.14    0.75
  -5   5  13   13.72    0.89
  -5   5  12  102.80    2.69
  -5   5  12  105.95    3.06
  -5   5  11  196.17    4.48
  -5   5  11  193.64    5.05
  -5   5  10  232.91    5.25
  -5   5  10  219.18    5.84
  -5   5   9   20.95    1.40
  -5   5   9   20.48    1.75
  -5   5   8  413.29    8.84
  -5   5   7   20.43    1.61
   5  -5  -6  231.20    5.04
  -5   5   6  244.92    5.77
  -5   5   5    8.22    1.08
  -5   5   5    8.38    1.08
  -5   5   4  390.62    7.68
  -5   5   4  375.65    7.64
  -5   5   4  378.31    7.32
   5  -5  -4  371.20    6.80
  -5   5   3  256.69    5.97
  -5   5   3  290.18    5.98
  -5   5   3  290.84    5.96
  -5   5   3  305.74    6.31
   5  -5  -3  279.90    5.41
  -5   5   3  269.28    5.48
  -5   5   2    7.59    0.86
  -5   5   2    8.24    0.96
   5  -5  -2    7.22    0.72
  -5   5   1   63.14    2.15
   5  -5  -1   60.82    1.97
  -5   5   0   49.47    2.01
  -5   5   0   51.14    2.01
  -5   5   0   51.10    2.05
  -5   5  -1  379.35    7.43
  -5   5  -1  364.81    6.89
  -5   5  -1  379.93    7.35
  -5   5  -2 1333.48   20.60
  -5   5  -2 1325.53   20.39
  -5   5  -2 1329.97   20.92
  -5   5  -3  300.45    5.94
  -5   5  -3  293.33    5.86
  -5   5  -3  305.88    6.11
  -5   5  -4    3.57    0.86
  -5   5  -4    2.21    0.70
  -5   5  -4    1.95    0.74
  -5   5  -4    1.27    0.66
  -5   5  -5  193.10    4.38
  -5   5  -5  196.95    4.21
   5  -5   5  189.35    4.80
  -5   5  -6  106.30    2.63
  -5   5  -6  109.71    2.79
   5  -5   6  109.40    2.96
  -5   5  -6  112.50    2.90
  -5   5  -7   13.12    0.88
  -5   5  -8    1.33    0.34
  -5   4  13   50.75    1.59
  -5   4  13   53.03    1.84
   5  -4 -12   40.10    1.37
  -5   4  12   47.42    1.75
   5  -4 -11   49.38    1.66
  -5   4  11   61.79    2.36
  -5   4  10   51.22    2.42
  -5   4   9  197.08    5.41
  -5   4   8  180.68    5.18
   5  -4  -7  258.36    5.33
  -5   4   7  276.02    5.45
  -5   4   7  266.98    6.38
  -5   4   7  275.95    6.14
   5  -4  -7  255.11    5.38
  -5   4   6    2.16    0.68
  -5   4   6    2.10    0.82
  -5   4   6    1.71    0.65
   5  -4  -6    2.44    0.60
  -5   4   6    2.73    0.81
  -5   4   6    1.87    0.74
  -5   4   5  152.04    4.01
   5  -4  -5  149.59    3.62
  -5   4   5  163.48    3.99
  -5   4   5  146.95    4.21
  -5   4   5  139.43    3.99
  -5   4   5  156.47    4.32
  -5   4   4  339.95    6.51
  -5   4   4  332.89    6.83
  -5   4   4  354.45    7.09
   5  -4  -3   52.46    1.71
  -5   4   3   52.87    2.17
  -5   4   3   53.76    1.97
  -5   4   3   47.88    1.79
  -5   4   3   54.60    2.22
  -5   4   3   53.61    2.12
  -5   4   3   51.03    2.10
  -5   4   2  106.66    3.06
  -5   4   2  111.82    3.09
  -5   4   2  108.32    2.84
  -5   4   2  120.33    3.36
   5  -4  -2  110.20    2.67
  -5   4   2  112.72    3.23
  -5   4   1  418.93    7.86
  -5   4   1  436.23    7.83
  -5   4   1  479.66    8.52
  -5   4   1  449.00    8.13
   5  -4  -1  445.83    7.55
  -5   4   1  453.39    8.27
  -5   4   0   20.74    1.15
  -5   4   0   24.97    1.31
   5  -4   0   24.89    1.11
  -5   4   0   24.07    1.37
  -5   4  -1   76.96    2.47
  -5   4  -1   78.32    2.48
  -5   4  -2    2.53    0.72
  -5   4  -2    2.78    0.71
  -5   4  -2    2.92    0.79
  -5   4  -2    2.57    0.67
  -5   4  -3  166.17    3.92
  -5   4  -3  175.10    4.23
  -5   4  -3  172.71    3.91
  -5   4  -3  148.39    3.71
  -5   4  -3  170.25    4.07
  -5   4  -3  154.91    4.02
  -5   4  -4    1.15    0.74
  -5   4  -4    0.79    0.66
  -5   4  -4    0.60    0.69
  -5   4  -5  141.23    3.70
  -5   4  -5  138.89    3.53
  -5   4  -6   30.84    1.53
  -5   4  -6   29.97    1.57
   5  -4   6   32.31    1.73
  -5   4  -6   30.86    1.68
  -5   4  -7   14.72    1.00
  -5   4  -7   16.02    1.20
  -5   4  -8  166.04    3.57
  -5   4  -8  167.38    3.56
   5  -3 -13    3.98    0.51
   5  -3 -12    1.69    0.51
  -5   3  12    2.11    0.60
   5  -3 -11    9.16    0.79
  -5   3  11   10.88    1.15
   5  -3 -10    5.39    0.69
  -5   3  10    6.01    1.07
   5  -3  -9  361.52    6.59
  -5   3   9  390.51    8.49
   5  -3  -8  717.39   11.61
  -5   3   8  703.80   13.45
  -5   3   7    5.87    0.95
  -5   3   7    6.98    0.76
   5  -3  -7    6.61    0.74
  -5   3   7    7.54    0.96
  -5   3   7    8.02    1.17
  -5   3   6  395.72    8.06
  -5   3   6  416.20    7.39
   5  -3  -6  378.01    7.32
  -5   3   6  435.57    8.56
  -5   3   6  398.35    8.12
  -5   3   5  130.30    3.61
   5  -3  -5  130.66    3.30
  -5   3   5  136.92    3.95
  -5   3   5  130.14    3.74
  -5   3   4   68.98    2.32
  -5   3   4   68.37    2.45
  -5   3   3   33.76    1.60
   5  -3  -3   31.17    1.28
  -5   3   3   28.91    1.31
  -5   3   3   30.29    1.62
  -5   3   3   31.78    1.70
  -5   3   3   28.93    1.49
  -5   3   2   29.31    1.43
   5  -3  -2   27.69    1.15
  -5   3   2   27.72    1.28
  -5   3   2   27.29    1.50
  -5   3   2   27.04    1.43
  -5   3   2   26.58    1.38
   5  -3  -1   85.81    2.13
  -5   3   1   81.27    2.38
  -5   3   1   82.66    2.43
  -5   3   1   79.05    2.33
  -5   3   1   84.12    2.64
  -5   3   1   86.57    2.59
  -5   3   1   82.11    2.53
  -5   3   0    5.86    0.64
  -5   3   0    5.85    0.73
  -5   3   0    6.02    0.72
   5  -3   0    6.87    0.57
  -5   3   0    6.14    0.78
  -5   3   0    6.71    0.77
   5  -3   1  674.83   10.55
  -5   3  -1  672.54   11.28
  -5   3  -2  550.20    9.79
  -5   3  -2  599.08    9.90
  -5   3  -2  549.29    9.55
  -5   3  -2  612.28   10.10
  -5   3  -2  591.74   10.01
  -5   3  -2  592.20    9.96
  -5   3  -3    7.82    0.89
  -5   3  -3    7.94    0.94
  -5   3  -3    8.36    0.98
  -5   3  -3    7.56    0.85
  -5   3  -3    7.44    0.77
  -5   3  -3    7.96    0.93
  -5   3  -3    7.45    0.85
  -5   3  -4  385.19    6.98
  -5   3  -4  342.39    6.69
  -5   3  -4  368.87    6.95
  -5   3  -4  344.73    6.99
  -5   3  -4  368.99    6.87
  -5   3  -5  178.70    4.38
  -5   3  -5  168.58    4.11
  -5   3  -5  175.72    4.30
  -5   3  -6  228.45    5.00
  -5   3  -6  214.53    4.83
  -5   3  -7  419.58    7.68
  -5   3  -8   63.33    2.02
  -5   3  -8   56.88    1.96
  -5   3  -9    4.06    0.58
  -5   3  -9    3.65    0.73
  -5   3  -9    4.24    0.55
  -5   3 -10    0.50    0.34
   5  -2 -13   45.24    1.43
  -5   2  13   47.80    1.61
   5  -2 -12    8.63    0.76
  -5   2  12    9.69    0.98
   5  -2 -11    9.47    0.82
  -5   2  11   10.37    1.19
   5  -2 -10    4.17    0.66
  -5   2  10    5.14    1.07
   5  -2  -9   27.04    1.28
  -5   2   9   29.08    2.11
   5  -2  -8   97.01    2.49
  -5   2   8  100.05    3.82
   5  -2  -8   95.76    2.53
   5  -2  -7  256.60    4.84
  -5   2   7  256.72    6.50
   5  -2  -7  247.07    5.03
  -5   2   6    6.34    0.88
  -5   2   6    6.10    0.67
  -5   2   6    7.09    1.04
  -5   2   6    7.78    0.98
   5  -2  -6    5.19    0.69
  -5   2   5  126.01    3.32
  -5   2   5  131.97    3.08
  -5   2   5  122.69    3.58
  -5   2   4    9.61    0.80
  -5   2   4   10.11    0.84
  -5   2   4   12.45    1.07
  -5   2   4    9.47    0.95
   5  -2  -3  386.74    6.69
  -5   2   2    7.69    0.62
   5  -2  -2    7.02    0.59
   5  -2  -1   35.51    1.23
   5  -2   0    9.35    0.62
  -5   2  -1  192.02    4.07
  -5   2  -1  197.71    4.08
   5  -2   1  199.23    3.63
  -5   2  -2   96.74    2.58
  -5   2  -2   95.82    2.51
  -5   2  -2   95.68    2.39
  -5   2  -2   90.99    2.53
  -5   2  -2   95.13    2.55
  -5   2  -3  409.69    7.29
  -5   2  -3  395.53    7.01
  -5   2  -3  386.27    6.97
  -5   2  -3  396.98    7.19
  -5   2  -3  395.25    7.16
  -5   2  -4    0.72    0.63
  -5   2  -4    0.61    0.56
  -5   2  -4    0.31    0.56
  -5   2  -4    0.58    0.42
  -5   2  -4    0.62    0.55
  -5   2  -4    1.28    0.53
  -5   2  -5  239.77    5.08
  -5   2  -5  228.11    4.88
  -5   2  -6   18.50    1.34
  -5   2  -6   20.16    1.40
  -5   2  -6   18.15    1.44
  -5   2  -7   52.12    2.10
  -5   2  -7   55.29    2.14
  -5   2  -7   50.47    2.22
  -5   2  -7   53.29    2.23
  -5   2  -8   39.58    1.74
  -5   2  -8   39.78    1.83
  -5   2  -8   38.08    1.86
  -5   2  -9   55.58    1.88
  -5   2  -9   52.20    1.92
  -5   2  -9   53.62    1.98
  -5   2 -10   11.25    0.84
  -5   2 -10   11.60    0.79
  -5   2 -10   10.82    0.78
  -5   2 -10   10.73    0.71
  -5   2 -11    8.78    0.57
   5  -1 -13    0.39    0.41
  -5   1  13    0.74    0.44
   5  -1 -12   26.52    1.19
  -5   1  12   30.35    1.63
   5  -1 -11    1.22    0.58
  -5   1  11    1.45    0.79
   5  -1 -10  106.67    2.80
  -5   1  10  107.57    3.87
   5  -1  -9  159.46    3.60
  -5   1   9  170.93    5.16
   5  -1  -8  219.37    4.35
  -5   1   8  220.38    6.11
   5  -1  -7   38.37    1.40
   5  -1  -7   36.64    1.47
  -5   1   7   37.72    2.28
  -5   1   7   40.52    1.97
   5  -1  -6   59.40    1.72
  -5   1   6   59.48    1.85
   5  -1  -6   57.48    1.95
  -5   1   6   64.62    2.53
  -5   1   5   70.80    2.04
   5  -1  -5   64.03    2.08
  -5   1   5   69.10    2.61
  -5   1   4  118.70    2.80
   5  -1  -4  105.67    2.73
  -5   1   3  130.36    2.95
   5  -1  -3  134.52    3.01
   5  -1  -2   41.10    1.37
   5  -1  -1    4.10    0.47
   5  -1   0   53.67    1.46
   5  -1   1  737.98   11.01
  -5   1  -1  701.29   11.37
  -5   1  -2    1.53    0.39
  -5   1  -2    1.49    0.45
  -5   1  -3   17.18    0.99
  -5   1  -3   14.72    0.97
  -5   1  -3   16.27    0.88
  -5   1  -3   15.17    0.93
  -5   1  -4  379.20    6.90
  -5   1  -4  381.03    6.64
  -5   1  -4  367.61    6.63
  -5   1  -4  354.25    6.49
  -5   1  -4  372.95    6.75
  -5   1  -5   78.91    2.51
  -5   1  -5   79.71    2.39
  -5   1  -5   74.23    2.22
  -5   1  -5   76.30    2.39
  -5   1  -6  194.04    4.28
  -5   1  -6  202.41    4.97
  -5   1  -6  198.51    4.55
  -5   1  -6  206.88    4.68
  -5   1  -7  988.33   16.03
  -5   1  -7  995.64   16.59
  -5   1  -7  997.32   16.13
  -5   1  -8   52.19    2.09
  -5   1  -8   52.18    2.20
  -5   1  -8   49.82    2.11
  -5   1  -9  101.81    2.99
  -5   1  -9  101.18    2.82
  -5   1  -9   99.83    2.98
  -5   1  -9   98.50    2.94
  -5   1 -10   41.74    1.72
  -5   1 -10   43.01    1.64
  -5   1 -10   40.31    1.67
  -5   1 -10   41.55    1.54
  -5   1 -11    9.65    0.74
  -5   1 -11    9.80    0.74
  -5   1 -11    9.51    0.75
  -5   1 -11   10.16    0.66
   5   0 -13    0.77    0.38
  -5   0  13    1.33    0.46
  -5   0  12    5.60    0.86
  -5   0  11  214.41    5.45
   5   0 -10  300.84    5.73
  -5   0  10  296.83    7.08
   5   0  -9  130.59    3.17
  -5   0   9  128.97    4.04
  -5   0   9  129.47    4.42
   5   0  -8  131.12    3.15
  -5   0   8  141.03    4.22
  -5   0   8  137.09    4.58
   5   0  -7   45.13    1.61
  -5   0   7   51.19    2.44
   5   0  -7   45.45    1.63
  -5   0   7   49.67    2.18
   5   0  -6   42.01    1.61
  -5   0   6   44.36    2.26
  -5   0   6   41.41    2.26
  -5   0   6   46.13    2.11
  -5   0   5    2.15    0.68
  -5   0   5    1.64    0.67
  -5   0   5    4.12    0.76
   5   0  -5    2.50    0.54
   5   0  -4   54.64    1.80
  -5   0   3  749.68   12.05
   5   0  -2 1332.15   19.90
   5   0  -1  627.69    9.98
  -5   0   1  661.44   10.57
   5   0   0   34.44    1.10
  -5   0   0   31.51    1.16
  -5   0   0   31.73    1.35
   5   0   1   36.04    1.09
  -5   0  -1   35.20    1.28
   5   0   2  531.81    7.99
  -5   0  -2  531.65    8.58
  -5   0  -3  618.31   10.02
  -5   0  -3  660.09   10.33
  -5   0  -4  117.18    2.80
  -5   0  -4  114.63    2.70
  -5   0  -4  113.40    2.69
  -5   0  -4  121.62    2.86
  -5   0  -5  736.12   11.82
  -5   0  -5  731.46   11.85
  -5   0  -5  743.22   11.69
  -5   0  -5  717.74   12.10
  -5   0  -5  729.32   11.78
  -5   0  -6  263.26    5.28
  -5   0  -6  272.42    5.92
  -5   0  -7   20.43    1.20
  -5   0  -7   20.24    1.37
  -5   0  -7   19.59    1.46
  -5   0  -7   21.29    1.25
  -5   0  -7   19.75    1.37
  -5   0  -8    1.35    0.76
  -5   0  -8    2.45    0.76
  -5   0  -8    2.08    0.84
  -5   0  -9    0.14    0.58
  -5   0  -9    0.36    0.63
  -5   0  -9    1.21    0.74
  -5   0  -9    0.48    0.80
  -5   0 -10   57.14    2.11
  -5   0 -10   54.25    1.98
  -5   0 -10   52.59    2.07
  -5   0 -11   65.80    2.06
  -5   0 -11   64.06    2.02
  -5   0 -11   62.29    2.05
  -5   0 -11   64.65    1.88
  -5   0 -12   98.57    2.27
  -5   0 -12   95.54    2.32
  -5   0 -12   94.44    2.21
   5   1 -12    3.88    0.56
  -5  -1  12    4.30    0.79
   5   1 -11  251.33    4.90
  -5  -1  11  269.25    6.16
   5   1 -10   82.40    2.42
  -5  -1  10   94.01    3.17
  -5  -1  10   89.51    3.44
  -5  -1   9  105.11    3.54
  -5  -1   9   98.79    3.75
   5   1  -8  104.61    2.73
  -5  -1   8  110.50    3.63
  -5  -1   7  564.71   10.58
  -5  -1   7  514.28   10.90
   5   1  -7  524.61    9.15
  -5  -1   7  573.80   10.27
   5   1  -7  541.92    8.96
  -5  -1   6  143.88    4.21
  -5  -1   6  148.27    4.12
   5   1  -6  142.47    3.13
  -5  -1   5  592.55   11.29
  -5  -1   5  560.99   11.38
  -5  -1   4  326.06    5.92
  -5  -1   3  142.55    3.20
  -5  -1   3  135.95    3.04
  -5  -1   2  593.03    9.50
  -5  -1   2  552.99    9.15
  -5  -1   1  102.06    2.29
  -5  -1   0  249.54    4.88
  -5  -1   0  258.90    4.24
  -5  -1  -1   16.91    0.99
   5   1   1   19.62    0.78
  -5  -1  -1   17.70    0.85
   5   1   2  630.00    9.40
  -5  -1  -2  646.99   10.02
  -5  -1  -3   72.40    1.85
  -5  -1  -3   69.78    1.87
  -5  -1  -4  131.03    2.96
  -5  -1  -4  141.30    3.11
  -5  -1  -5  214.18    4.33
  -5  -1  -5  218.57    4.45
  -5  -1  -5  209.80    4.36
  -5  -1  -5  219.94    4.32
  -5  -1  -5  224.75    4.40
  -5  -1  -6   13.60    1.02
  -5  -1  -6   13.01    1.01
  -5  -1  -6   12.30    0.89
  -5  -1  -6   14.68    1.13
  -5  -1  -6   12.42    0.91
  -5  -1  -7   51.32    2.05
  -5  -1  -7   46.30    1.77
  -5  -1  -7   49.64    2.17
  -5  -1  -7   53.46    1.98
  -5  -1  -8  386.53    7.58
  -5  -1  -8  378.15    6.98
  -5  -1  -8  369.29    7.02
  -5  -1  -9    9.21    0.98
  -5  -1  -9    9.19    1.03
  -5  -1  -9    8.02    1.00
  -5  -1  -9    7.38    1.01
  -5  -1 -10   16.21    1.18
  -5  -1 -10   16.95    1.23
  -5  -1 -10   15.82    1.25
  -5  -1 -10   17.29    1.15
  -5  -1 -11   34.06    1.53
  -5  -1 -11   33.01    1.52
  -5  -1 -11   32.90    1.58
  -5  -1 -11   34.39    1.43
  -5  -1 -12    0.58    0.42
  -5  -1 -12    0.08    0.54
  -5  -1 -12    0.54    0.49
  -5  -1 -12    0.34    0.40
   5   2 -12   18.12    0.84
  -5  -2  12   20.24    1.21
   5   2 -11   11.95    0.81
  -5  -2  11   13.41    1.28
   5   2 -10   68.43    2.08
  -5  -2  10   72.53    2.72
  -5  -2  10   72.08    3.00
   5   2  -9   48.05    1.76
  -5  -2   9   50.28    2.40
   5   2  -8  233.97    4.74
  -5  -2   8  239.51    5.86
  -5  -2   8  222.85    6.07
  -5  -2   8  232.97    5.57
  -5  -2   7   84.17    3.43
  -5  -2   7   87.94    3.09
   5   2  -7   80.65    2.36
  -5  -2   7   92.26    3.24
  -5  -2   6   22.20    1.58
  -5  -2   6   19.32    1.64
  -5  -2   6   23.78    1.60
   5   2  -6   21.05    1.17
  -5  -2   5    9.35    0.83
  -5  -2   5    8.48    1.13
  -5  -2   5   10.02    1.13
  -5  -2   5    8.74    0.72
  -5  -2   5   10.05    0.78
  -5  -2   4   46.88    1.64
  -5  -2   4   47.94    1.70
  -5  -2   3    6.32    0.67
  -5  -2   3    4.40    0.60
  -5  -2   2  186.61    3.97
  -5  -2   2  171.78    3.62
  -5  -2   1  161.41    3.67
  -5  -2   1  154.83    3.19
  -5  -2   0 2220.59   32.17
  -5  -2   0 2140.76   31.27
  -5  -2  -1  247.04    5.07
  -5  -2  -1  246.87    4.22
  -5  -2  -1  254.95    4.24
  -5  -2  -2  152.30    3.52
  -5  -2  -2  166.19    3.19
  -5  -2  -3  612.00   10.35
  -5  -2  -3  632.41   10.33
  -5  -2  -4   89.08    2.19
  -5  -2  -4   93.76    2.23
  -5  -2  -4   94.99    2.43
  -5  -2  -5   30.12    1.29
  -5  -2  -5   35.81    1.43
  -5  -2  -6   70.90    2.39
  -5  -2  -6   65.74    2.07
  -5  -2  -6   67.58    2.10
  -5  -2  -6   72.30    2.39
  -5  -2  -6   72.58    2.14
  -5  -2  -7  208.57    4.76
  -5  -2  -7  209.67    4.43
  -5  -2  -7  212.66    4.54
  -5  -2  -7  206.98    4.92
  -5  -2  -7  199.28    4.25
  -5  -2  -8  205.45    4.55
  -5  -2  -8  208.44    4.60
  -5  -2  -8  208.59    5.00
  -5  -2  -8  203.37    4.43
  -5  -2  -8  195.75    4.34
  -5  -2  -9  222.42    4.94
  -5  -2  -9  222.11    5.20
  -5  -2  -9  219.94    4.71
  -5  -2  -9  205.27    4.63
  -5  -2 -10   37.14    1.72
  -5  -2 -10   39.67    1.79
  -5  -2 -10   37.99    1.66
  -5  -2 -10   36.28    1.83
  -5  -2 -11   42.28    1.81
  -5  -2 -11   41.55    1.67
  -5  -2 -11   42.01    1.73
  -5  -2 -12   58.93    2.00
  -5  -2 -12   61.59    1.87
  -5  -2 -12   60.47    1.91
  -5  -2 -13  115.82    2.59
  -5  -2 -13  108.75    2.44
  -5  -2 -13  109.86    2.34
  -5  -3  12   19.67    1.04
   5   3 -11   36.06    1.24
  -5  -3  11   38.63    1.86
   5   3 -10   48.48    1.65
  -5  -3  10   51.60    2.17
   5   3  -9   93.66    2.51
  -5  -3   9   86.37    3.43
   5   3  -8  124.72    3.08
  -5  -3   8  125.71    3.96
  -5  -3   8  118.23    4.09
  -5  -3   8  119.94    3.76
  -5  -3   7   79.99    3.06
  -5  -3   7   77.81    3.22
  -5  -3   7   81.26    3.02
   5   3  -7   75.53    2.32
  -5  -3   6  209.05    4.72
  -5  -3   6  200.97    5.54
  -5  -3   6  208.46    5.29
  -5  -3   6  212.67    5.30
   5   3  -6  206.95    4.44
  -5  -3   5   34.57    2.08
  -5  -3   5   37.42    1.95
  -5  -3   5   35.32    1.44
  -5  -3   4    3.88    0.61
  -5  -3   4    4.62    0.70
  -5  -3   4    3.47    0.78
  -5  -3   4    3.48    0.84
  -5  -3   4    4.88    0.90
  -5  -3   4    4.63    0.55
  -5  -3   3    3.90    0.61
  -5  -3   3    3.61    0.65
  -5  -3   2  205.47    4.42
  -5  -3   2  210.39    4.16
  -5  -3   1   12.02    0.98
  -5  -3   1   13.12    0.75
  -5  -3   0  800.88   12.16
  -5  -3  -1  604.94   10.14
  -5  -3  -1  586.16    9.10
  -5  -3  -1  595.75    8.93
  -5  -3  -2 1500.66   23.05
  -5  -3  -2 1508.25   22.00
  -5  -3  -2 1538.50   22.08
  -5  -3  -3  674.99   11.11
  -5  -3  -3  686.77   10.63
  -5  -3  -4  123.04    2.90
  -5  -3  -4  120.33    2.82
  -5  -3  -5   11.61    0.79
  -5  -3  -5    9.62    0.82
  -5  -3  -6  113.91    3.13
  -5  -3  -6  116.84    2.99
  -5  -3  -6  119.33    3.13
  -5  -3  -6  119.26    2.95
  -5  -3  -7   52.91    1.84
  -5  -3  -7   56.58    2.06
  -5  -3  -7   55.04    1.93
  -5  -3  -7   56.17    2.21
  -5  -3  -7   53.96    1.93
  -5  -3  -8   23.05    1.43
  -5  -3  -8   21.92    1.51
  -5  -3  -8   19.07    1.23
  -5  -3  -9    0.93    0.61
  -5  -3  -9    1.59    0.66
  -5  -3  -9    1.61    0.59
  -5  -3  -9    1.34    0.52
  -5  -3 -10   61.25    2.12
  -5  -3 -10   59.95    2.20
  -5  -3 -11   29.68    1.59
  -5  -3 -11   32.33    1.51
  -5  -3 -11   30.70    1.48
  -5  -3 -12   52.69    1.98
  -5  -3 -12   48.08    1.86
  -5  -3 -12   47.14    1.78
  -5  -3 -12   53.98    1.82
  -5  -3 -12   50.62    1.77
  -5  -3 -13    0.64    0.40
  -5  -3 -13    0.91    0.37
  -5  -3 -13    0.13    0.51
  -5  -3 -13    0.55    0.44
  -5  -3 -13    0.80    0.42
   5   4 -10    1.59    0.51
  -5  -4  10    2.30    0.66
   5   4  -9   13.38    0.94
  -5  -4   9   15.34    1.36
  -5  -4   9   14.17    1.44
   5   4  -8   83.96    2.38
  -5  -4   8   81.02    3.29
  -5  -4   8   87.67    3.22
  -5  -4   8   85.57    3.07
  -5  -4   7  146.50    4.39
  -5  -4   7  140.25    4.44
  -5  -4   7  145.94    4.32
  -5  -4   6  144.19    3.79
  -5  -4   6  144.35    4.25
  -5  -4   6  142.71    4.46
  -5  -4   6  145.47    4.29
   5   4  -6  138.06    3.52
  -5  -4   5  305.31    6.24
  -5  -4   5  300.46    7.06
  -5  -4   4   30.17    1.76
  -5  -4   4   27.76    1.87
  -5  -4   3   72.11    2.32
  -5  -4   3   71.72    2.25
  -5  -4   3   65.12    2.54
  -5  -4   3   63.79    1.86
  -5  -4   2  227.51    4.93
  -5  -4   2  246.87    4.74
  -5  -4   1    4.64    0.70
  -5  -4   1    6.39    0.58
  -5  -4   0  813.20   13.32
  -5  -4   0  832.38   12.63
  -5  -4  -1  650.29   11.27
  -5  -4  -1  691.03   10.49
  -5  -4  -2 1132.73   17.61
  -5  -4  -2 1106.68   16.50
  -5  -4  -3 1393.48   21.19
  -5  -4  -3 1366.02   20.11
  -5  -4  -4  141.98    3.34
  -5  -4  -4  138.34    3.01
  -5  -4  -5  641.46   10.54
  -5  -4  -5  651.54   10.58
  -5  -4  -6  357.65    6.76
  -5  -4  -6  382.48    6.95
  -5  -4  -6  340.69    6.71
  -5  -4  -6  405.60    7.08
  -5  -4  -7  257.47    5.10
  -5  -4  -7  260.38    5.35
  -5  -4  -7  262.60    5.34
  -5  -4  -8  564.25    9.74
  -5  -4  -8  585.23   10.37
  -5  -4  -9  210.40    4.76
  -5  -4  -9  222.18    5.28
  -5  -4  -9  224.43    4.77
  -5  -4  -9  226.71    5.11
  -5  -4 -10   52.91    2.06
  -5  -4 -10   51.38    2.25
  -5  -4 -10   54.70    2.01
  -5  -4 -10   53.82    2.13
  -5  -4 -11   12.50    1.13
  -5  -4 -11   12.41    1.10
  -5  -4 -11   11.62    1.02
  -5  -4 -11   12.99    1.02
  -5  -4 -11   13.54    1.02
  -5  -4 -12   19.51    1.21
  -5  -4 -12   20.01    1.19
  -5  -4 -12   21.80    1.15
  -5  -4 -13   46.66    1.72
  -5  -4 -13   45.88    1.62
  -5  -4 -13   44.06    1.59
  -5  -4 -13   46.71    1.49
  -5  -4 -13   43.05    1.67
  -5  -4 -14   86.36    1.99
  -5  -4 -14   73.26    1.95
  -5  -5  10   48.28    1.98
  -5  -5  10   44.48    1.63
   5   5  -9  449.74    7.39
  -5  -5   9  453.37    8.54
  -5  -5   9  451.54    9.00
   5   5  -8   19.58    1.07
  -5  -5   8   17.62    1.50
  -5  -5   8   20.17    1.65
  -5  -5   8   17.70    1.41
  -5  -5   7    2.74    0.95
  -5  -5   7    3.09    0.98
  -5  -5   7    1.94    0.89
  -5  -5   6   26.86    1.87
  -5  -5   6   24.36    1.80
  -5  -5   6   26.50    1.88
  -5  -5   5  331.03    6.87
  -5  -5   5  351.21    7.68
  -5  -5   4  140.97    3.79
  -5  -5   4  153.29    4.26
  -5  -5   4  138.77    3.76
  -5  -5   4  137.99    4.31
  -5  -5   4  145.99    3.39
  -5  -5   3  228.66    5.15
  -5  -5   3  252.31    5.81
  -5  -5   3  247.92    5.28
  -5  -5   3  218.32    5.84
  -5  -5   3  243.20    4.74
  -5  -5   2    1.81    0.69
  -5  -5   2    2.69    0.44
  -5  -5   2    2.15    0.51
  -5  -5   2    3.27    0.47
  -5  -5   1  624.36    9.66
  -5  -5   1  540.03    9.88
  -5  -5   0    7.76    0.82
  -5  -5   0    1.30    0.38
  -5  -5  -1  224.96    4.24
  -5  -5  -2  188.82    3.72
  -5  -5  -2  210.40    4.85
  -5  -5  -3   60.06    2.42
  -5  -5  -3   57.56    1.63
  -5  -5  -4  896.75   14.15
  -5  -5  -4  807.82   12.84
  -5  -5  -5  728.84   12.09
  -5  -5  -6 1088.03   17.14
  -5  -5  -6 1103.19   17.00
  -5  -5  -6 1062.97   17.02
  -5  -5  -6 1111.29   17.15
  -5  -5  -7  641.33   11.37
  -5  -5  -7  754.46   11.87
  -5  -5  -7  736.21   11.69
  -5  -5  -7  641.05   11.53
  -5  -5  -8  240.62    5.09
  -5  -5  -8  260.49    5.63
  -5  -5  -8  256.99    5.51
  -5  -5  -8  235.80    5.22
  -5  -5  -8  236.50    5.44
  -5  -5  -9  188.84    4.44
  -5  -5  -9  197.80    4.89
  -5  -5  -9  200.98    4.86
  -5  -5  -9  198.23    4.76
  -5  -5 -10   48.89    2.04
  -5  -5 -10   48.69    2.21
  -5  -5 -10   49.08    2.18
  -5  -5 -10   51.88    2.00
  -5  -5 -10   53.95    2.13
  -5  -5 -11    2.28    0.61
  -5  -5 -11    1.87    0.68
  -5  -5 -11    2.15    0.72
  -5  -5 -11    1.97    0.68
  -5  -5 -12   50.80    1.98
  -5  -5 -12   48.12    1.87
  -5  -5 -12   46.31    1.86
  -5  -5 -12   50.14    1.76
  -5  -5 -13   12.00    0.88
  -5  -5 -13   12.46    0.77
  -5  -5 -13   11.25    0.94
  -5  -5 -14    4.51    0.48
  -5  -5 -14    4.82    0.53
  -5  -5 -14    5.40    0.59
  -5  -6   9   15.56    1.22
  -5  -6   9   14.84    1.05
  -5  -6   8  129.27    3.70
  -5  -6   8  136.22    3.95
  -5  -6   8  123.36    3.46
   5   6  -7  110.26    2.65
  -5  -6   7  112.57    3.75
  -5  -6   7  108.87    3.59
  -5  -6   7  114.05    3.71
  -5  -6   6   11.57    1.36
  -5  -6   6   11.40    1.33
  -5  -6   5   10.12    1.27
  -5  -6   4  243.69    5.62
  -5  -6   4  258.19    5.74
  -5  -6   4  250.52    6.07
  -5  -6   4  247.33    6.16
  -5  -6   4  257.25    5.15
  -5  -6   3   55.09    2.14
  -5  -6   3   48.26    2.19
  -5  -6   3   56.49    2.52
  -5  -6   3   54.15    1.82
  -5  -6   2  613.59   10.95
  -5  -6   2  591.75   10.52
  -5  -6   2  617.20    9.85
  -5  -6   1  215.19    5.09
  -5  -6   1  205.49    4.38
  -5  -6   1  211.33    4.47
  -5  -6   1  219.02    4.21
  -5  -6   1  211.38    4.20
  -5  -6   0  114.10    3.30
  -5  -6   0  113.49    2.79
  -5  -6  -1   46.06    1.59
  -5  -6  -1   47.35    2.11
  -5  -6  -2 2422.29   35.03
  -5  -6  -2 2359.44   36.45
  -5  -6  -3  721.60   11.51
  -5  -6  -3  729.39   13.07
  -5  -6  -4   80.95    2.37
  -5  -6  -4   84.80    2.25
  -5  -6  -4   78.42    2.23
  -5  -6  -4   81.63    2.39
  -5  -6  -5  626.63   10.61
  -5  -6  -5  631.95   10.35
  -5  -6  -5  607.44   10.40
  -5  -6  -5  639.95   10.74
  -5  -6  -6  183.20    4.22
  -5  -6  -6  191.58    4.57
  -5  -6  -6  179.81    4.09
  -5  -6  -6  197.81    4.44
  -5  -6  -7    1.11    0.59
  -5  -6  -7    1.50    0.59
  -5  -6  -7    1.53    0.53
  -5  -6  -8   10.51    1.05
  -5  -6  -8   13.35    1.14
  -5  -6  -8   13.20    1.14
  -5  -6  -8   14.13    1.25
  -5  -6  -9   79.16    2.67
  -5  -6  -9   91.45    3.04
  -5  -6  -9   77.76    2.77
  -5  -6  -9   94.10    3.26
  -5  -6 -10   26.25    1.52
  -5  -6 -10   22.83    1.57
  -5  -6 -10   24.73    1.47
  -5  -6 -11  122.46    3.34
  -5  -6 -11  124.59    3.60
  -5  -6 -11  128.35    3.33
  -5  -6 -11  123.23    3.79
  -5  -6 -12   19.03    1.25
  -5  -6 -12   20.24    1.11
  -5  -6 -12   18.05    1.33
  -5  -6 -13    0.23    0.50
  -5  -6 -13    0.40    0.36
  -5  -6 -13    0.31    0.39
  -5  -6 -13    0.25    0.43
  -5  -6 -14  190.05    3.56
  -5  -6 -14  186.55    3.84
  -5  -7   8    8.38    0.90
  -5  -7   8    9.14    1.00
  -5  -7   7   72.95    2.70
  -5  -7   7   71.61    2.71
  -5  -7   7   68.91    2.58
  -5  -7   6    7.71    1.20
  -5  -7   6    8.30    1.19
  -5  -7   6    8.58    1.24
  -5  -7   5   11.86    1.30
  -5  -7   4   56.97    2.42
  -5  -7   4   60.02    2.71
  -5  -7   4   53.70    2.55
  -5  -7   3    7.17    0.91
  -5  -7   3    7.15    1.10
  -5  -7   3    7.09    1.14
  -5  -7   3    6.68    0.74
  -5  -7   2  181.02    4.78
  -5  -7   2  184.68    4.32
  -5  -7   2  191.99    4.69
  -5  -7   2  178.93    3.88
  -5  -7   1  105.54    3.51
  -5  -7   1  105.38    2.88
  -5  -7   1   97.52    3.16
  -5  -7   1  104.59    2.58
  -5  -7   0  428.76    8.36
  -5  -7   0  407.49    7.17
  -5  -7   0  420.42    7.29
  -5  -7   0  419.90    7.25
  -5  -7  -1  500.03    9.47
  -5  -7  -1  477.27    8.24
  -5  -7  -1  478.16    8.29
  -5  -7  -1  488.61    8.35
  -5  -7  -2  222.38    4.48
  -5  -7  -2  229.28    4.55
  -5  -7  -2  225.30    4.59
  -5  -7  -3   34.55    1.45
  -5  -7  -3   33.60    2.07
  -5  -7  -3   32.44    1.33
  -5  -7  -3   32.35    1.37
  -5  -7  -3   31.92    1.39
  -5  -7  -4  305.74    5.92
  -5  -7  -4  299.40    5.77
  -5  -7  -4  305.72    5.90
  -5  -7  -5   60.92    2.08
  -5  -7  -5   64.36    2.07
  -5  -7  -5   65.15    2.94
  -5  -7  -5   58.82    2.00
  -5  -7  -5   65.66    2.19
  -5  -7  -6  116.51    3.16
  -5  -7  -6  124.15    3.89
  -5  -7  -6  119.90    3.15
  -5  -7  -6  123.68    3.29
  -5  -7  -7  239.41    5.21
  -5  -7  -7  240.50    5.18
  -5  -7  -7  243.77    5.22
  -5  -7  -7  246.57    5.41
  -5  -7  -8   33.77    1.70
  -5  -7  -8   30.77    1.65
  -5  -7  -8   33.11    1.70
  -5  -7  -8   31.02    1.74
  -5  -7  -9    4.80    0.89
  -5  -7  -9    3.30    0.80
  -5  -7  -9    3.18    0.78
  -5  -7 -10  244.37    5.76
  -5  -7 -10  262.89    5.94
  -5  -7 -10  245.52    5.54
  -5  -7 -10  273.42    6.20
  -5  -7 -11    6.75    0.89
  -5  -7 -11    7.32    0.97
  -5  -7 -11    7.16    0.82
  -5  -7 -11    6.49    1.00
  -5  -7 -12   32.37    1.48
  -5  -7 -12   31.86    1.60
  -5  -7 -12   32.33    1.36
  -5  -7 -12   30.59    1.62
  -5  -7 -13  244.16    4.70
  -5  -7 -13  261.94    5.04
  -5  -7 -13  262.09    4.61
  -5  -7 -13  246.35    5.07
  -5  -7 -14   53.84    1.59
  -5  -8   7  306.73    5.99
  -5  -8   7  309.90    5.95
  -5  -8   6    0.90    0.79
  -5  -8   6    2.01    0.74
  -5  -8   6    0.54    0.74
  -5  -8   5  138.12    4.11
  -5  -8   5  134.26    3.88
  -5  -8   4    0.42    0.76
  -5  -8   4    0.99    0.92
  -5  -8   3   68.76    2.74
  -5  -8   3   75.34    3.02
  -5  -8   2   84.96    3.03
  -5  -8   2   81.65    2.32
  -5  -8   1  222.03    5.59
  -5  -8   1  211.93    4.76
  -5  -8   1  228.95    5.13
   5   8  -1  214.93    4.49
  -5  -8   1  212.62    4.24
  -5  -8   0 1134.53   19.28
  -5  -8   0 1145.57   18.03
  -5  -8   0 1154.66   18.10
  -5  -8   0 1186.12   17.83
  -5  -8  -1  102.77    3.49
  -5  -8  -1  101.64    2.65
  -5  -8  -1   99.39    2.67
  -5  -8  -1   97.35    2.50
  -5  -8  -2  190.35    5.11
  -5  -8  -2  193.54    4.15
  -5  -8  -2  189.88    4.18
  -5  -8  -2  195.36    4.08
  -5  -8  -3   41.11    1.70
  -5  -8  -3   38.32    1.55
  -5  -8  -3   37.15    1.55
  -5  -8  -3   36.98    1.49
  -5  -8  -4  165.20    3.83
  -5  -8  -4  169.80    3.83
  -5  -8  -4  169.42    3.83
  -5  -8  -5  600.59   10.10
  -5  -8  -5  614.01   10.24
  -5  -8  -5  556.30   11.75
  -5  -8  -5  565.59    9.93
  -5  -8  -5  582.52   10.00
  -5  -8  -6    8.12    0.82
  -5  -8  -6    8.53    0.85
  -5  -8  -6    7.35    1.25
  -5  -8  -6    8.00    0.82
  -5  -8  -7   87.85    2.66
  -5  -8  -7   85.50    2.74
  -5  -8  -7   86.20    2.68
  -5  -8  -7   90.41    2.77
  -5  -8  -8  867.14   14.59
  -5  -8  -8  902.43   14.70
  -5  -8  -8  895.76   14.78
  -5  -8  -9    0.63    0.59
  -5  -8  -9    0.58    0.62
  -5  -8  -9    0.35    0.53
  -5  -8 -10    3.57    0.84
  -5  -8 -10    3.63    0.74
  -5  -8 -10    3.49    0.73
  -5  -8 -11    0.16    0.58
  -5  -8 -11    0.62    0.50
  -5  -8 -11    0.12    0.47
  -5  -8 -12    6.11    0.66
  -5  -8 -12    6.70    0.65
  -5  -8 -12    6.27    0.81
  -5  -8 -13    0.57    0.43
  -5  -8 -14  131.58    2.69
  -5  -9   6    3.96    0.69
  -5  -9   5  106.77    3.24
  -5  -9   4  214.85    5.26
  -5  -9   3   42.94    2.07
  -5  -9   3   45.12    2.26
  -5  -9   2   64.77    2.65
  -5  -9   2   66.95    2.84
  -5  -9   1   73.97    2.98
  -5  -9   1   77.39    2.80
   5   9  -1   74.49    2.33
  -5  -9   0  364.46    7.30
  -5  -9  -1  637.17   10.78
  -5  -9  -1  660.01   10.89
  -5  -9  -2    1.51    0.56
  -5  -9  -2    1.81    0.54
  -5  -9  -2    1.80    0.89
  -5  -9  -3 1086.38   16.98
  -5  -9  -3 1074.75   16.73
  -5  -9  -3 1071.74   16.75
  -5  -9  -4  147.39    3.70
  -5  -9  -4  144.75    3.55
  -5  -9  -4  147.11    3.53
  -5  -9  -4  142.77    3.32
  -5  -9  -5  374.81    7.09
  -5  -9  -5  363.57    6.84
  -5  -9  -5  354.01    6.72
  -5  -9  -5  362.03    6.62
  -5  -9  -6  573.93    9.89
  -5  -9  -6  548.66    9.55
  -5  -9  -6  544.66    9.35
  -5  -9  -7   13.89    1.07
  -5  -9  -7   12.61    0.96
  -5  -9  -8   49.68    1.93
  -5  -9  -8   53.14    2.06
  -5  -9  -8   46.41    1.87
  -5  -9  -9   56.76    2.10
  -5  -9  -9   50.75    2.07
  -5  -9  -9   54.83    2.10
  -5  -9 -10  334.08    6.61
  -5  -9 -10  319.58    6.60
  -5  -9 -11   16.19    1.02
  -5  -9 -11   14.99    1.12
  -5  -9 -12   21.88    1.01
  -5  -9 -12   21.41    1.18
  -5  -9 -13  131.33    2.84
  -5 -10   5   46.41    1.66
  -5 -10   5   46.26    1.68
  -5 -10   4   36.28    1.69
  -5 -10   3    3.28    0.75
  -5 -10   3    4.25    0.87
  -5 -10   2   63.78    2.45
  -5 -10   2   65.41    2.56
  -5 -10   1  612.55   10.90
  -5 -10   1  619.41   11.23
  -5 -10   0   99.96    3.54
   5  10   0  103.59    2.87
   5  10   1  102.65    2.87
  -5 -10  -2   28.80    1.42
  -5 -10  -3  156.39    3.80
  -5 -10  -3  169.13    3.88
  -5 -10  -4  945.55   15.16
  -5 -10  -4  937.82   15.12
  -5 -10  -5  273.56    5.59
  -5 -10  -6   94.79    2.77
  -5 -10  -6   95.07    2.74
  -5 -10  -7  381.18    7.30
  -5 -10  -7  398.31    7.31
  -5 -10  -8   81.57    2.60
  -5 -10  -8   85.59    2.62
  -5 -10  -9    0.92    0.55
  -5 -10  -9    0.14    0.54
  -5 -10 -10   34.27    1.54
  -5 -10 -11    9.78    0.76
  -5 -10 -12    0.86    0.32
  -5 -10 -13   43.70    1.37
  -5 -11   3    1.76    0.55
  -5 -11   2   51.64    1.83
  -5 -11   2   45.79    1.86
  -5 -11   1   13.77    1.16
  -5 -11   1   14.21    1.18
   5  11  -1   12.25    0.88
  -5 -11   0   13.87    1.26
  -5 -11   0   17.13    1.32
  -5 -11   0   16.25    1.28
   5  11   0   15.13    1.03
  -5 -11  -1    6.96    1.14
  -5 -11  -1    7.81    0.99
   5  11   1    8.63    0.90
   5  11   2  711.67   11.78
  -5 -11  -3  434.22    7.76
  -5 -11  -4  333.71    6.34
  -5 -11  -4  336.41    6.37
  -5 -11  -5   10.94    0.93
  -5 -11  -6  187.20    4.15
  -5 -11  -6  186.12    4.14
  -5 -11  -7    1.06    0.54
  -5 -11  -7    0.89    0.52
  -5 -11  -8   75.40    2.35
  -5 -11  -8   76.84    2.38
  -5 -11  -9    5.90    0.73
  -5 -11 -10   43.92    1.59
  -5 -11 -11   31.90    1.16
  -5 -11 -12   34.37    1.26
  -5 -12   1   65.91    1.85
  -5 -12   0   12.34    0.97
   5  12   0   10.11    0.74
  -5 -12  -1   18.06    1.24
  -5 -12  -1   20.90    1.28
   5  12   1   20.63    1.06
  -5 -12  -2  126.30    3.63
   5  12   2  131.79    3.10
  -5 -12  -3   25.19    1.73
  -5 -12  -3   26.86    1.37
   5  12   3   28.71    1.32
   5  12   4   30.42    1.39
  -5 -12  -5    1.79    0.51
  -5 -12  -6   10.60    0.81
  -5 -12  -7  239.47    4.72
  -5 -12  -8    0.94    0.48
  -5 -12  -9    3.49    0.74
  -5 -12  -9    4.59    0.59
  -5 -12 -10   13.17    0.83
  -5 -12 -10   11.85    0.73
  -5 -12 -11    5.46    0.54
  -5 -13  -2    1.40    0.48
   5  13   2    0.79    0.37
  -5 -13  -3   61.48    1.83
   5  13   3   59.01    1.62
  -5 -13  -4   11.69    1.10
  -5 -13  -4   13.36    0.88
   5  13   4   12.63    0.80
  -5 -13  -5  171.56    4.44
  -5 -13  -5  194.04    3.79
  -5 -13  -6   17.47    1.45
   5  13   6   18.70    0.97
  -5 -13  -7    7.20    1.02
   5  13   7    9.20    0.73
   5  13   8   24.65    1.06
  -5 -13  -8   27.95    1.03
   5  13   9   87.57    2.04
  -5 -13  -9   88.77    2.03
  -6   9   5   59.36    1.52
  -6   9   4    4.90    0.48
  -6   8   9   31.30    1.11
  -6   8   9   32.88    1.20
  -6   8   8    1.97    0.47
  -6   8   8    2.07    0.52
  -6   8   7   15.12    0.96
  -6   8   7   17.73    0.98
  -6   8   6   31.84    1.36
  -6   8   6   34.51    1.37
  -6   8   5    1.50    0.47
  -6   8   4   68.83    1.99
  -6   8   4   72.34    2.05
  -6   8   3    7.89    0.71
  -6   8   3    7.46    0.83
  -6   8   2    2.39    0.61
  -6   8   2    2.08    0.50
  -6   8   1  144.58    2.90
  -6   8   1  130.04    3.02
  -6   8   0   10.88    0.67
  -6   8   0   10.23    0.73
  -6   8  -1   43.59    1.30
   6  -8   1   49.73    1.63
  -6   7  10   44.98    1.57
  -6   7  10   42.09    1.32
  -6   7   9    2.16    0.58
  -6   7   9    1.91    0.58
  -6   7   8    3.65    0.67
  -6   7   8    3.04    0.72
  -6   7   7    1.18    0.57
  -6   7   7    1.00    0.66
  -6   7   6   15.35    1.17
  -6   7   6   17.75    1.18
  -6   7   5   13.51    1.09
  -6   7   5   13.92    1.05
  -6   7   4   19.75    1.21
  -6   7   3  292.99    5.79
  -6   7   2   57.24    1.97
  -6   7   2   55.11    1.75
  -6   7   2   60.30    2.04
  -6   7   1   93.26    2.51
  -6   7   1   89.66    2.71
  -6   7   1   92.79    2.32
  -6   7   0   18.01    1.04
  -6   7   0   16.43    1.12
  -6   7   0   19.19    0.97
  -6   7  -1   -0.17    0.53
  -6   7  -1    0.28    0.47
  -6   7  -2   78.32    1.99
  -6   7  -2   77.84    2.12
   6  -7   2   78.03    2.49
   6  -7   3   33.05    1.31
  -6   7  -3   31.87    1.17
  -6   6  11    0.84    0.45
  -6   6  11    0.70    0.47
  -6   6  10    0.41    0.56
  -6   6  10    0.18    0.45
  -6   6  10    0.43    0.57
  -6   6   9    5.88    0.81
  -6   6   9    5.16    0.90
  -6   6   9    4.99    0.87
  -6   6   8    3.90    0.80
  -6   6   8    3.85    0.87
  -6   6   8    2.17    0.75
  -6   6   7    6.25    1.03
  -6   6   7    5.84    0.88
  -6   6   7    6.56    0.93
  -6   6   6   -0.24    0.78
  -6   6   6    0.53    0.63
  -6   6   6    0.91    0.61
  -6   6   5   26.05    1.58
  -6   6   5   27.98    1.58
  -6   6   4  251.13    5.47
  -6   6   3  101.76    2.98
  -6   6   3   97.02    2.87
  -6   6   2    6.72    0.93
  -6   6   1  199.76    4.43
  -6   6   1  193.49    4.48
  -6   6   0  166.38    3.87
  -6   6   0  159.43    3.61
  -6   6  -1   65.00    2.13
  -6   6  -1   65.71    2.31
  -6   6  -1   66.03    2.03
  -6   6  -2   10.18    0.90
  -6   6  -2    9.42    0.95
  -6   6  -2    9.50    0.85
  -6   6  -3   22.24    1.15
  -6   6  -3   22.13    1.23
   6  -6   3   20.57    1.44
  -6   6  -4    2.36    0.53
   6  -6   4    2.31    0.63
  -6   6  -4    2.61    0.63
  -6   6  -5    0.42    0.45
  -6   5  12    6.78    0.60
  -6   5  11   13.21    1.09
  -6   5  10  157.05    4.30
  -6   5   9   10.17    1.27
  -6   5   8   48.71    2.41
  -6   5   7    1.07    0.76
  -6   5   6   20.91    1.55
  -6   5   6   18.84    1.44
  -6   5   5  410.48    8.23
  -6   5   5  424.99    8.35
  -6   5   5  411.42    8.21
  -6   5   4  394.34    7.71
  -6   5   4  409.38    7.98
  -6   5   4  396.03    7.83
  -6   5   3  158.77    4.07
  -6   5   3  148.85    3.73
  -6   5   3  163.26    4.20
  -6   5   2   48.16    1.98
  -6   5   2   46.59    1.87
  -6   5   2   49.04    2.08
  -6   5   1   23.74    1.40
  -6   5   1   18.70    1.36
  -6   5   0   45.15    1.96
  -6   5  -1    0.34    0.70
  -6   5  -1    0.22    0.64
  -6   5  -1    0.41    0.59
  -6   5  -2    8.57    0.94
  -6   5  -2    8.22    1.00
  -6   5  -2    7.87    0.88
  -6   5  -3   18.55    1.18
  -6   5  -3   18.67    1.29
  -6   5  -3   18.74    1.19
  -6   5  -4   38.81    1.61
   6  -5   4   35.21    1.86
  -6   5  -5  112.44    2.72
   6  -5   5  110.45    2.93
  -6   5  -5  114.20    2.88
  -6   5  -5  114.22    2.83
  -6   5  -6   61.53    1.62
  -6   5  -6   65.66    1.81
  -6   4  12    4.27    0.66
  -6   4  11    4.63    0.88
  -6   4  10   65.17    2.87
  -6   4  10   81.02    2.86
  -6   4   9   25.80    1.79
  -6   4   8   12.92    1.42
  -6   4   8   14.40    1.16
  -6   4   7    1.18    0.60
  -6   4   7    1.04    0.80
  -6   4   7    0.38    0.63
  -6   4   6   21.55    1.38
  -6   4   6   18.22    1.55
  -6   4   6   17.99    1.50
  -6   4   5    0.21    0.68
  -6   4   5   -0.17    0.63
  -6   4   5    0.68    0.71
  -6   4   5    0.28    0.61
  -6   4   4  222.25    5.12
  -6   4   4  212.18    4.71
  -6   4   4  222.44    5.36
  -6   4   4  219.88    5.19
   6  -4  -4  228.46    4.71
  -6   4   3   61.64    2.42
  -6   4   3   61.57    2.31
  -6   4   3   59.43    2.12
  -6   4   3   66.76    2.59
  -6   4   3   62.17    2.44
   6  -4  -3   61.46    2.00
  -6   4   2  331.91    6.79
  -6   4   2  339.35    6.54
  -6   4   2  347.34    6.80
   6  -4  -2  333.34    6.26
  -6   4   2  351.24    6.99
  -6   4   1  878.13   14.06
  -6   4   1  861.85   13.80
   6  -4  -1  843.37   13.41
  -6   4   1  878.88   14.22
  -6   4   0   13.63    1.03
  -6   4   0   16.44    1.20
  -6   4   0   16.09    1.17
  -6   4   0   16.92    1.26
  -6   4   0   14.36    1.15
  -6   4  -1  518.81    9.31
  -6   4  -1  526.21    9.44
  -6   4  -2  254.23    5.31
  -6   4  -2  249.64    5.45
  -6   4  -2  245.59    5.13
  -6   4  -3    6.18    0.96
  -6   4  -3    4.58    0.83
  -6   4  -3    6.04    0.85
  -6   4  -4   45.29    1.88
  -6   4  -4   45.68    1.90
  -6   4  -4   47.09    2.02
  -6   4  -5    6.16    0.86
   6  -4   5    5.50    0.97
  -6   4  -6   13.38    1.00
  -6   4  -7    0.67    0.43
  -6   4  -7    0.39    0.44
  -6   4  -8   25.45    0.95
   6  -3 -12   43.20    1.30
  -6   3  12   46.54    1.81
   6  -3 -11    1.26    0.44
  -6   3  11    1.51    0.74
  -6   3  11    1.31    0.62
  -6   3  10   27.98    1.77
  -6   3   9    2.19    0.88
  -6   3   8   89.90    2.57
  -6   3   8   92.70    2.98
  -6   3   8   82.99    3.41
  -6   3   7    1.83    0.58
  -6   3   7    1.06    0.92
  -6   3   7    2.04    0.74
  -6   3   6  244.31    5.02
  -6   3   6  235.39    5.98
  -6   3   6  240.26    5.69
  -6   3   5  639.45   12.18
   6  -3  -5  624.71   11.11
   6  -3  -4   13.85    0.98
  -6   3   4   15.43    1.33
  -6   3   4   13.67    1.21
  -6   3   3   49.17    2.07
   6  -3  -3   49.18    1.74
  -6   3   3   45.20    1.89
  -6   3   3   44.57    1.97
   6  -3  -2   50.48    1.69
  -6   3   2   46.86    1.96
  -6   3   2   46.17    1.87
  -6   3   2   45.31    1.81
  -6   3   2   48.65    2.07
  -6   3   2   47.17    2.00
  -6   3   1  434.97    8.10
  -6   3   1  449.40    8.20
  -6   3   1  448.65    8.10
  -6   3   1  455.54    8.69
  -6   3   1  462.90    8.56
  -6   3   1  462.15    8.42
   6  -3  -1  464.40    7.74
  -6   3   0  543.82    9.61
  -6   3   0  576.36    9.95
  -6   3   0  593.26    9.89
   6  -3   0  586.43    9.36
  -6   3   0  583.80   10.05
  -6   3   0  557.62    9.95
  -6   3  -1   78.64    2.47
  -6   3  -1   72.07    2.44
  -6   3  -1   71.58    2.41
  -6   3  -2  291.14    5.93
  -6   3  -2  317.90    6.20
  -6   3  -2  315.27    6.05
  -6   3  -2  277.00    5.96
  -6   3  -3   67.79    2.45
  -6   3  -3   67.64    2.41
  -6   3  -3   68.63    2.28
  -6   3  -4  103.54    2.99
  -6   3  -4  104.17    3.15
  -6   3  -4  102.73    2.98
  -6   3  -5  125.57    3.43
  -6   3  -5  128.81    3.53
  -6   3  -5  130.23    3.53
  -6   3  -6   93.50    2.77
  -6   3  -6   92.73    2.89
  -6   3  -7   52.03    1.92
  -6   3  -7   54.46    2.00
  -6   3  -8   57.37    1.83
  -6   3  -8   58.72    1.75
  -6   3  -8   58.37    1.86
  -6   3  -9   66.17    1.72
  -6   3  -9   66.70    1.61
   6  -2 -12    0.29    0.40
  -6   2  12    0.50    0.53
  -6   2  12    0.69    0.49
   6  -2 -11   19.60    1.01
  -6   2  11   22.85    1.48
   6  -2 -10    1.04    0.48
  -6   2  10    1.66    0.79
   6  -2  -9   10.36    0.81
  -6   2   9   10.31    1.35
   6  -2  -8    8.35    0.77
  -6   2   8    7.54    1.29
  -6   2   8    9.65    1.01
  -6   2   7  102.97    2.80
  -6   2   7  109.09    3.44
  -6   2   6    8.17    0.80
   6  -2  -6    7.99    0.83
  -6   2   6    9.84    1.14
  -6   2   5   41.90    1.71
  -6   2   5   41.92    2.20
  -6   2   5   42.38    2.14
   6  -2  -5   35.19    1.60
  -6   2   5   39.35    2.03
  -6   2   4  574.51    9.55
  -6   2   4  521.81   10.02
  -6   2   4  552.42   10.09
   6  -2  -4  518.01    9.16
  -6   2   4  505.10    9.88
  -6   2   3   65.73    2.19
  -6   2   3   70.23    2.61
   6  -2  -3   71.79    2.13
  -6   2   2  396.90    7.36
  -6   2   2  410.44    8.00
  -6   2   2  399.59    7.85
  -6   2   2  390.81    7.60
  -6   2   1   47.07    1.84
   6  -2  -1   48.90    1.57
  -6   2   1   44.26    1.72
  -6   2   1   45.54    1.98
  -6   2   1   45.34    1.91
  -6   2   1   43.89    1.81
   6  -2   0   24.04    1.04
  -6   2   0   24.43    1.24
  -6   2   0   23.70    1.25
  -6   2   0   24.17    1.44
  -6   2   0   22.50    1.31
  -6   2   0   22.93    1.29
  -6   2   0   23.43    1.24
  -6   2  -1  234.25    4.83
  -6   2  -1  232.44    4.85
  -6   2  -1  227.49    4.74
  -6   2  -1  221.26    4.79
  -6   2  -1  227.52    4.81
  -6   2  -2    7.37    0.87
  -6   2  -2    8.80    0.92
  -6   2  -2    9.80    0.92
  -6   2  -2    7.16    0.81
  -6   2  -2    8.42    0.86
  -6   2  -3   15.57    1.15
  -6   2  -3   18.01    1.27
  -6   2  -3   15.43    1.11
  -6   2  -3   15.61    1.10
  -6   2  -4   39.95    1.86
  -6   2  -4   43.97    1.86
  -6   2  -4   37.42    1.74
  -6   2  -5   50.95    2.08
  -6   2  -5   53.45    2.18
  -6   2  -5   57.66    2.21
  -6   2  -6   49.18    2.05
  -6   2  -7   96.36    2.87
  -6   2  -7   94.32    2.81
  -6   2  -7   94.73    2.89
  -6   2  -8  150.18    3.66
  -6   2  -8  152.71    3.55
  -6   2  -8  157.74    3.67
  -6   2  -9  157.63    3.43
  -6   2  -9  152.64    3.28
  -6   2  -9  151.88    3.37
  -6   2 -10   42.25    1.19
   6  -1 -12    0.51    0.42
  -6   1  12    0.13    0.47
  -6   1  12    0.16    0.49
   6  -1 -11   30.03    1.26
  -6   1  11   32.47    1.77
   6  -1 -10   18.28    1.05
  -6   1  10   17.82    1.54
   6  -1  -9    0.52    0.54
  -6   1   9    0.94    0.88
   6  -1  -8   87.12    2.35
  -6   1   8   92.28    3.01
   6  -1  -7    0.27    0.48
   6  -1  -7   -0.18    0.47
  -6   1   7    0.10    0.68
   6  -1  -6  204.96    4.56
  -6   1   6  213.23    4.49
  -6   1   6  212.11    5.72
  -6   1   6  224.38    5.50
  -6   1   5  275.93    5.24
  -6   1   5  274.18    6.26
  -6   1   5  268.12    6.13
  -6   1   4    6.62    0.76
  -6   1   4    5.81    0.89
  -6   1   4    5.98    0.87
  -6   1   4    4.70    0.85
   6  -1  -3  407.26    7.13
  -6   1   3  413.95    7.44
  -6   1   3  396.80    7.82
  -6   1   2  195.06    4.69
  -6   1   2  213.31    4.87
  -6   1   2  201.77    4.71
   6  -1  -2  214.17    4.23
  -6   1   1  210.39    4.60
  -6   1   1  202.25    4.65
   6  -1  -1  208.74    4.02
  -6   1   1  208.99    4.63
  -6   1   0  277.28    5.57
  -6   1   0  282.13    5.38
  -6   1   0  285.29    5.84
   6  -1   0  300.95    5.15
  -6   1   0  295.92    5.83
  -6   1   0  282.62    5.44
  -6   1   0  275.60    5.47
  -6   1  -1   17.71    1.00
   6  -1   1   18.08    0.84
  -6   1  -1   17.43    1.02
  -6   1  -1   18.05    1.10
  -6   1  -1   16.77    1.02
  -6   1  -1   16.61    1.01
  -6   1  -2   12.76    0.94
  -6   1  -2   13.28    0.97
  -6   1  -2   12.75    0.94
  -6   1  -2   12.66    0.93
  -6   1  -2   13.09    0.92
  -6   1  -3    0.85    0.55
  -6   1  -3    0.35    0.52
  -6   1  -3    1.04    0.59
  -6   1  -3    0.55    0.46
  -6   1  -4   47.23    1.86
  -6   1  -4   42.28    1.82
  -6   1  -4   40.94    1.68
  -6   1  -4   41.86    1.69
  -6   1  -4   41.22    1.72
  -6   1  -5   11.41    1.10
  -6   1  -5   12.10    1.11
  -6   1  -5   12.23    1.13
  -6   1  -5   11.71    1.06
  -6   1  -5    9.82    0.94
  -6   1  -6   47.90    2.02
  -6   1  -6   43.84    2.01
  -6   1  -7  162.74    4.06
  -6   1  -7  164.19    3.99
  -6   1  -7  161.11    4.01
  -6   1  -8  628.16   10.92
  -6   1  -8  651.29   10.80
  -6   1  -8  618.61   11.09
  -6   1  -8  627.48   10.79
  -6   1  -9   39.11    1.66
  -6   1  -9   39.68    1.59
  -6   1  -9   35.50    1.58
  -6   1  -9   37.78    1.64
  -6   1 -10   71.11    1.95
  -6   1 -10   70.27    1.89
  -6   1 -11    6.50    0.52
   6   0 -12    1.03    0.44
  -6   0  12    0.74    0.52
   6   0 -11   78.51    2.13
  -6   0  11   81.17    2.86
   6   0 -10  308.37    5.77
  -6   0  10  314.75    7.17
   6   0  -9  304.74    5.74
   6   0  -8  343.59    6.24
  -6   0   8  337.84    7.12
   6   0  -7  174.45    3.72
   6   0  -7  171.32    3.91
   6   0  -6    9.72    0.80
  -6   0   6    8.69    0.82
  -6   0   6    8.86    1.26
   6   0  -6    8.93    0.86
  -6   0   6   10.01    1.16
   6   0  -5    1.10    0.52
  -6   0   5    1.19    0.51
  -6   0   5    1.35    0.71
  -6   0   5    1.37    0.75
  -6   0   4  584.07    9.89
  -6   0   4  587.58   10.78
  -6   0   4  584.16   10.84
  -6   0   3   77.45    2.37
  -6   0   3   70.54    2.46
  -6   0   3   78.16    2.63
   6   0  -3   74.55    2.22
   6   0  -2   32.71    1.32
  -6   0   2   30.59    1.55
   6   0  -1   72.99    1.97
   6   0   0 1057.52   15.96
   6   0   1  190.32    3.56
  -6   0  -1  191.73    3.97
  -6   0  -2   39.88    1.47
  -6   0  -2   40.09    1.54
  -6   0  -3   11.53    0.86
  -6   0  -3   10.56    0.89
  -6   0  -3   10.07    0.82
  -6   0  -3   10.96    0.85
  -6   0  -4   62.46    2.06
  -6   0  -4   59.03    2.06
  -6   0  -4   60.27    1.92
  -6   0  -4   58.11    1.92
  -6   0  -4   58.89    2.02
  -6   0  -5    2.74    0.70
  -6   0  -5    4.11    0.74
  -6   0  -5    3.26    0.74
  -6   0  -5    3.14    0.69
  -6   0  -5    2.14    0.55
  -6   0  -6  152.43    4.02
  -6   0  -6  159.85    3.94
  -6   0  -6  141.00    3.51
  -6   0  -6  158.44    3.85
  -6   0  -6  142.55    4.05
  -6   0  -6  150.00    3.69
  -6   0  -7  289.49    6.11
  -6   0  -7  274.52    6.34
  -6   0  -7  287.58    5.89
  -6   0  -8  144.57    3.91
  -6   0  -8  155.28    3.85
  -6   0  -8  149.06    4.13
  -6   0  -8  151.58    3.81
  -6   0  -9  148.60    3.71
  -6   0  -9  146.68    3.59
  -6   0  -9  145.98    3.81
  -6   0  -9  143.02    3.57
  -6   0 -10   34.49    1.48
  -6   0 -10   33.12    1.49
  -6   0 -10   36.39    1.46
  -6   0 -11  268.20    4.70
  -6   0 -11  253.93    4.53
  -6   0 -11  255.20    4.70
  -6  -1  12   58.66    1.97
  -6  -1  11    4.53    0.88
   6   1 -10  158.29    3.49
  -6  -1  10  150.74    4.48
   6   1  -9  134.60    3.22
   6   1  -8  293.36    5.61
  -6  -1   8  303.44    7.01
  -6  -1   8  284.57    7.30
  -6  -1   8  285.69    6.43
   6   1  -7  848.04   13.25
  -6  -1   7  862.86   15.13
  -6  -1   7  768.23   15.35
  -6  -1   7  867.02   14.62
   6   1  -7  796.87   13.33
  -6  -1   6   61.71    2.81
   6   1  -6   56.59    2.02
  -6  -1   6   57.61    2.91
  -6  -1   6   65.42    2.72
   6   1  -5    1.81    0.53
  -6  -1   5    1.21    0.50
  -6  -1   5    0.72    0.76
  -6  -1   5    1.16    0.72
  -6  -1   4   33.00    1.48
  -6  -1   4   29.86    1.80
  -6  -1   4   29.42    1.75
  -6  -1   4   29.79    1.82
  -6  -1   4   35.02    1.51
  -6  -1   3  154.38    3.70
  -6  -1   3  148.67    4.05
  -6  -1   2  226.37    4.78
  -6  -1   1  136.95    3.44
   6   1  -1  137.76    3.04
  -6  -1   0 1982.34   30.65
   6   1   0 2099.40   29.94
   6   1   1   74.80    1.83
  -6  -1  -1   72.48    1.97
  -6  -1  -1   70.67    2.21
  -6  -1  -2  237.26    4.61
  -6  -1  -2  231.68    4.63
  -6  -1  -3  182.51    3.93
  -6  -1  -3  181.28    3.73
  -6  -1  -4   37.11    1.63
  -6  -1  -4   38.29    1.57
  -6  -1  -4   36.01    1.47
  -6  -1  -4   36.16    1.40
  -6  -1  -4   35.09    1.47
  -6  -1  -5  111.22    3.22
  -6  -1  -5  110.69    2.99
  -6  -1  -5  114.12    2.88
  -6  -1  -5  116.65    3.15
  -6  -1  -5  115.23    2.98
  -6  -1  -6   28.19    1.60
  -6  -1  -6   28.03    1.52
  -6  -1  -6   23.88    1.23
  -6  -1  -6   29.33    1.51
  -6  -1  -6   27.91    1.60
  -6  -1  -6   27.02    1.37
  -6  -1  -7  567.57   10.12
  -6  -1  -7  579.94    9.94
  -6  -1  -7  519.12    9.46
  -6  -1  -7  542.63   10.34
  -6  -1  -7  553.63    9.66
  -6  -1  -7  577.11    9.74
  -6  -1  -8  347.10    6.96
  -6  -1  -8  340.96    6.75
  -6  -1  -8  357.00    7.36
  -6  -1  -8  341.25    6.66
  -6  -1  -9  257.89    5.75
  -6  -1  -9  269.14    5.40
  -6  -1 -10    1.82    0.63
  -6  -1 -10    2.48    0.72
  -6  -1 -10    1.86    0.65
  -6  -1 -10    1.59    0.60
  -6  -1 -11   64.72    2.01
  -6  -1 -11   60.28    1.99
  -6  -1 -11   66.03    1.93
  -6  -1 -11   63.37    2.00
  -6  -1 -12  212.62    3.91
  -6  -1 -12  207.40    3.73
  -6  -1 -12  207.93    3.86
   6   2 -12   18.83    0.76
  -6  -2  12   22.30    1.09
   6   2 -11   24.27    1.04
  -6  -2  11   24.10    1.49
   6   2 -10   53.28    1.74
  -6  -2   9   30.05    1.88
  -6  -2   9   26.97    1.93
   6   2  -8  266.76    5.28
  -6  -2   8  273.84    6.50
  -6  -2   8  261.12    6.86
  -6  -2   8  274.91    6.23
  -6  -2   7   50.64    2.51
  -6  -2   7   46.43    2.71
   6   2  -7   50.69    1.90
  -6  -2   7   49.83    2.41
   6   2  -7   47.51    1.73
  -6  -2   6    0.78    0.87
  -6  -2   6    0.32    0.94
  -6  -2   6    1.36    0.81
   6   2  -6    1.61    0.62
  -6  -2   5  170.21    4.94
  -6  -2   5  158.70    5.02
  -6  -2   5  181.94    4.93
  -6  -2   5  168.15    3.73
  -6  -2   5  187.91    4.06
  -6  -2   4  327.35    6.06
  -6  -2   4  329.72    6.25
  -6  -2   4  289.90    6.93
  -6  -2   4  294.39    7.01
  -6  -2   4  313.06    7.12
  -6  -2   4  306.93    5.69
  -6  -2   4  349.76    6.26
  -6  -2   3   14.41    1.03
  -6  -2   3   13.73    0.92
  -6  -2   3   14.05    1.06
  -6  -2   3   14.16    1.20
  -6  -2   2 1162.65   17.74
  -6  -2   2 1097.73   17.23
  -6  -2   1  376.95    6.60
  -6  -2   0 1254.03   19.59
  -6  -2  -1   78.59    2.45
  -6  -2  -2  262.84    5.46
  -6  -2  -2  301.83    5.21
  -6  -2  -3   18.92    1.01
  -6  -2  -3    7.96    0.74
  -6  -2  -4  148.62    3.47
  -6  -2  -5   15.31    1.13
  -6  -2  -5   14.99    1.00
  -6  -2  -5   16.70    0.99
  -6  -2  -5   16.19    1.09
  -6  -2  -5   15.94    1.02
  -6  -2  -6    3.75    0.76
  -6  -2  -6    4.12    0.72
  -6  -2  -6    4.76    0.68
  -6  -2  -6    4.28    0.76
  -6  -2  -6    5.18    0.79
  -6  -2  -6    3.83    0.61
  -6  -2  -6    3.68    0.70
  -6  -2  -7   11.75    1.11
  -6  -2  -7   11.46    1.05
  -6  -2  -7   12.39    1.01
  -6  -2  -7   11.83    1.18
  -6  -2  -7   12.14    0.97
  -6  -2  -8  187.04    4.47
  -6  -2  -8  180.87    4.26
  -6  -2  -8  180.43    4.70
  -6  -2  -8  172.49    3.99
  -6  -2  -9  112.89    3.12
  -6  -2  -9  110.31    3.40
  -6  -2  -9  111.76    3.05
  -6  -2  -9  100.99    2.88
  -6  -2 -10  170.95    4.00
  -6  -2 -10  168.95    4.16
  -6  -2 -10  176.55    3.92
  -6  -2 -11  186.65    4.00
  -6  -2 -11  174.69    3.99
  -6  -2 -11  160.21    3.64
  -6  -2 -11  191.99    3.90
  -6  -2 -11  182.58    3.95
  -6  -2 -11  148.46    3.81
  -6  -2 -12    0.62    0.43
  -6  -2 -12   -0.20    0.53
  -6  -2 -12    0.22    0.44
  -6  -2 -12    0.11    0.34
  -6  -2 -12    0.08    0.41
   6   3 -11   17.21    0.80
   6   3 -10   66.26    1.91
  -6  -3  10   70.76    2.48
  -6  -3  10   68.48    2.68
   6   3  -9   13.36    1.00
  -6  -3   9   15.49    1.38
  -6  -3   9   15.51    1.50
   6   3  -8  603.53   10.05
  -6  -3   8  591.00   11.80
  -6  -3   8  608.13   11.17
  -6  -3   8  610.73   11.52
  -6  -3   7   24.25    1.98
  -6  -3   7   24.67    1.81
  -6  -3   7   21.26    1.69
  -6  -3   6    8.26    1.38
  -6  -3   6   10.73    1.30
  -6  -3   5   47.39    1.91
  -6  -3   5   42.95    2.57
  -6  -3   5   47.09    2.37
  -6  -3   5   45.37    2.38
  -6  -3   5   44.93    1.67
  -6  -3   4  238.23    4.96
  -6  -3   4  247.99    5.04
  -6  -3   4  237.24    5.07
  -6  -3   4  220.77    5.72
  -6  -3   4  203.71    5.84
  -6  -3   4  234.81    5.86
  -6  -3   4  224.53    4.53
  -6  -3   3  297.38    5.83
  -6  -3   3  287.48    5.67
  -6  -3   3  295.66    5.96
  -6  -3   3  278.94    6.43
  -6  -3   3  286.46    5.17
  -6  -3   2    0.90    0.46
  -6  -3   2    0.11    0.47
  -6  -3   1  214.59    4.77
  -6  -3   1  201.36    4.18
  -6  -3   0  101.57    3.06
  -6  -3   0  103.02    2.47
  -6  -3  -1  153.01    3.95
  -6  -3  -2   11.42    1.05
  -6  -3  -3   49.67    1.90
  -6  -3  -3   54.30    1.64
  -6  -3  -4   38.01    1.53
  -6  -3  -4   39.90    1.55
  -6  -3  -5    5.24    0.72
  -6  -3  -5    5.00    0.64
  -6  -3  -5    4.89    0.66
  -6  -3  -5    4.27    0.63
  -6  -3  -5    5.76    0.71
  -6  -3  -6  348.82    6.84
  -6  -3  -6  351.22    6.76
  -6  -3  -6  339.04    6.52
  -6  -3  -6  348.90    6.89
  -6  -3  -7   62.15    2.39
  -6  -3  -7   58.78    2.03
  -6  -3  -7   62.43    2.16
  -6  -3  -7   61.83    2.41
  -6  -3  -7   61.05    2.16
  -6  -3  -8   25.45    1.55
  -6  -3  -8   27.24    1.45
  -6  -3  -8   22.10    1.31
  -6  -3  -8   28.64    1.72
  -6  -3  -8   25.72    1.40
  -6  -3  -9  149.97    3.72
  -6  -3  -9  146.81    4.10
  -6  -3 -10   67.07    2.31
  -6  -3 -10   63.61    2.42
  -6  -3 -10   58.04    2.16
  -6  -3 -10   67.31    2.20
  -6  -3 -10   64.36    2.26
  -6  -3 -10   55.97    2.55
  -6  -3 -11   70.36    2.32
  -6  -3 -11   69.45    2.35
  -6  -3 -11   64.63    2.12
  -6  -3 -11   74.45    2.26
  -6  -3 -11   70.26    2.23
  -6  -3 -11   67.10    2.45
  -6  -3 -12  119.79    2.74
  -6  -3 -12  118.37    2.75
  -6  -3 -13    1.97    0.34
  -6  -3 -13    1.84    0.47
  -6  -3 -13    2.33    0.37
  -6  -3 -13    2.52    0.40
  -6  -4  11    8.93    0.77
   6   4 -10    0.77    0.45
  -6  -4  10    1.67    0.62
  -6  -4  10    1.88    0.75
   6   4  -9  306.60    5.56
  -6  -4   9  313.08    6.64
  -6  -4   9  304.65    6.88
   6   4  -8   86.51    2.40
  -6  -4   8   87.36    3.21
  -6  -4   8   87.28    3.38
  -6  -4   8   83.34    3.01
  -6  -4   7  129.04    4.11
  -6  -4   7  126.03    4.33
  -6  -4   7  126.59    4.01
  -6  -4   6   14.85    1.62
  -6  -4   6   14.95    1.46
  -6  -4   5  514.51    9.23
  -6  -4   5  500.45    9.96
  -6  -4   5  507.02   10.03
  -6  -4   5  492.94    8.70
  -6  -4   4  194.60    4.43
  -6  -4   4  197.20    4.58
  -6  -4   4  190.73    5.21
  -6  -4   4  196.48    5.24
  -6  -4   4  189.67    4.09
  -6  -4   3   91.12    2.83
  -6  -4   3   92.59    2.79
  -6  -4   3   94.03    3.01
  -6  -4   3   86.08    3.27
  -6  -4   3   88.83    3.35
  -6  -4   3   88.61    2.37
  -6  -4   2  376.10    7.19
  -6  -4   2  368.79    7.30
  -6  -4   2  377.62    6.86
  -6  -4   2  331.44    7.49
  -6  -4   2  370.57    6.42
  -6  -4   2  342.06    7.79
  -6  -4   2  357.04    6.33
  -6  -4   1   68.63    2.50
  -6  -4   1   66.66    2.53
  -6  -4   1   68.43    2.02
  -6  -4   1   65.72    1.92
  -6  -4   1   68.61    1.92
  -6  -4   0   98.09    2.41
  -6  -4  -1  226.29    5.23
  -6  -4  -1  220.69    4.14
  -6  -4  -2  564.10   10.00
  -6  -4  -2  528.75    8.55
  -6  -4  -3   21.67    1.40
  -6  -4  -4    4.81    0.73
  -6  -4  -4    4.59    0.56
  -6  -4  -4    4.90    0.63
  -6  -4  -5    0.69    0.44
  -6  -4  -5    1.69    0.51
  -6  -4  -5    1.00    0.48
  -6  -4  -5    1.25    0.51
  -6  -4  -5    1.43    0.49
  -6  -4  -6   11.43    0.91
  -6  -4  -6   12.17    0.99
  -6  -4  -6   11.48    0.96
  -6  -4  -6   10.72    0.96
  -6  -4  -6   12.12    1.02
  -6  -4  -6   11.10    1.02
  -6  -4  -7    0.58    0.59
  -6  -4  -7    1.18    0.66
  -6  -4  -7    0.54    0.55
  -6  -4  -7    0.15    0.59
  -6  -4  -7    0.55    0.60
  -6  -4  -7    0.77    0.52
  -6  -4  -8  320.95    6.43
  -6  -4  -8  345.37    7.17
  -6  -4  -8  343.22    6.84
  -6  -4  -8  353.58    6.72
  -6  -4  -8  330.87    6.97
  -6  -4  -8  358.97    7.64
  -6  -4  -9   38.89    1.74
  -6  -4  -9   44.27    2.13
  -6  -4  -9   40.99    1.91
  -6  -4  -9   40.88    1.78
  -6  -4 -10    2.73    0.84
  -6  -4 -10    3.09    0.69
  -6  -4 -10    2.86    0.75
  -6  -4 -10    2.48    0.66
  -6  -4 -11  111.94    3.04
  -6  -4 -11  114.66    2.96
  -6  -4 -11  110.02    2.98
  -6  -4 -11  106.38    3.34
  -6  -4 -12   69.70    2.17
  -6  -4 -12   62.76    2.07
  -6  -4 -12   60.52    1.94
  -6  -4 -12   67.26    2.00
  -6  -4 -12   62.73    2.17
  -6  -4 -13   39.89    1.31
  -6  -4 -13   35.10    1.32
  -6  -5  10    7.86    0.83
   6   5  -9    2.14    0.52
  -6  -5   9    1.92    0.73
  -6  -5   9    2.10    0.81
   6   5  -8    6.24    0.76
  -6  -5   8    6.51    1.07
  -6  -5   8    7.43    1.18
  -6  -5   8    7.22    1.01
  -6  -5   7   44.68    2.32
  -6  -5   7   41.10    2.31
  -6  -5   7   42.41    2.24
  -6  -5   6   98.02    3.73
  -6  -5   6   95.20    3.52
  -6  -5   5  828.07   14.88
  -6  -5   5  823.57   15.49
  -6  -5   5  853.85   14.98
  -6  -5   4   46.11    2.10
  -6  -5   4   40.87    2.51
  -6  -5   4   49.59    2.52
  -6  -5   4   45.19    2.42
  -6  -5   3  423.59    8.13
  -6  -5   3  437.42    8.11
  -6  -5   3  421.67    8.27
  -6  -5   3  401.72    7.63
  -6  -5   3  410.93    8.82
  -6  -5   2    0.68    0.77
  -6  -5   2    0.05    0.48
  -6  -5   2    0.41    0.73
  -6  -5   2    0.57    0.64
  -6  -5   2    0.55    0.38
  -6  -5   1  580.49   10.48
  -6  -5   1  579.26   10.28
  -6  -5   1  604.47    9.72
  -6  -5   1  525.66   10.63
  -6  -5   1  576.41    9.43
  -6  -5   1  546.03    9.38
  -6  -5   0   29.11    1.71
  -6  -5   0   28.46    1.59
  -6  -5   0   15.59    0.92
  -6  -5   0   16.17    0.95
  -6  -5   0   15.65    0.92
  -6  -5  -1   70.69    1.96
  -6  -5  -1   71.12    2.07
  -6  -5  -2   12.16    1.32
  -6  -5  -2   10.93    1.16
  -6  -5  -2   14.06    0.80
  -6  -5  -2   11.19    0.81
  -6  -5  -3  122.47    2.99
  -6  -5  -3  124.33    3.94
  -6  -5  -3  117.21    3.61
  -6  -5  -3  115.03    2.62
  -6  -5  -3  114.09    2.93
  -6  -5  -4   36.73    1.56
  -6  -5  -4   39.83    1.94
  -6  -5  -4   36.75    1.45
  -6  -5  -4   37.26    1.60
  -6  -5  -5  428.36    7.83
  -6  -5  -5  411.95    7.94
  -6  -5  -5  428.75    7.54
  -6  -5  -5  424.02    7.62
  -6  -5  -5  439.98    7.98
  -6  -5  -6   18.80    1.21
  -6  -5  -6   19.85    1.23
  -6  -5  -6   18.73    1.29
  -6  -5  -7   16.86    1.17
  -6  -5  -7   20.92    1.26
  -6  -5  -7   18.66    1.29
  -6  -5  -7   21.73    1.42
  -6  -5  -7   21.42    1.47
  -6  -5  -8  101.59    3.08
  -6  -5  -8  101.70    3.07
  -6  -5  -8  109.95    3.54
  -6  -5  -9  472.73    8.91
  -6  -5  -9  496.66    9.37
  -6  -5  -9  525.41    9.19
  -6  -5  -9  501.12    9.44
  -6  -5  -9  533.62   10.19
  -6  -5 -10  157.53    3.90
  -6  -5 -10  158.63    4.27
  -6  -5 -10  160.61    4.17
  -6  -5 -10  170.75    4.18
  -6  -5 -10  169.62    4.74
  -6  -5 -11  130.97    3.39
  -6  -5 -11  125.20    3.40
  -6  -5 -11  135.16    3.37
  -6  -5 -11  132.31    3.84
  -6  -5 -12   25.89    1.34
  -6  -5 -12   23.79    1.23
  -6  -5 -12   25.75    1.22
  -6  -5 -12   24.20    1.38
  -6  -5 -13   11.83    0.79
  -6  -5 -13   11.11    0.74
  -6  -5 -13   13.03    0.75
  -6  -5 -13   10.31    0.79
  -6  -6   9   70.92    2.17
  -6  -6   9   72.96    2.32
   6   6  -8  126.18    2.69
  -6  -6   8  134.28    3.70
  -6  -6   8  131.50    3.76
  -6  -6   8  127.57    3.36
   6   6  -7  396.64    6.88
  -6  -6   7  400.60    8.21
  -6  -6   7  390.51    8.23
  -6  -6   7  395.84    8.10
  -6  -6   6   87.28    3.38
  -6  -6   6   92.64    3.40
  -6  -6   5    1.59    0.89
  -6  -6   5    1.14    0.90
  -6  -6   5    1.27    0.93
  -6  -6   4  260.62    6.43
  -6  -6   4  250.70    6.66
  -6  -6   4  268.15    5.42
  -6  -6   3   41.01    1.90
  -6  -6   3   38.13    2.03
  -6  -6   3   38.56    2.23
  -6  -6   3   39.13    1.63
  -6  -6   2  376.77    7.81
  -6  -6   2  383.32    8.00
  -6  -6   2  427.73    7.68
  -6  -6   2  348.05    7.35
  -6  -6   2  381.63    8.54
  -6  -6   2  411.31    7.03
  -6  -6   2  394.95    7.06
  -6  -6   1    1.16    0.45
  -6  -6   1    3.92    0.92
  -6  -6   1    1.34    0.51
  -6  -6   1    1.78    0.89
  -6  -6   1    3.47    0.86
  -6  -6   1    1.47    0.43
  -6  -6   0   80.69    2.33
  -6  -6   0   73.82    2.70
  -6  -6   0   78.49    2.25
  -6  -6   0   75.89    2.21
  -6  -6  -1    1.69    0.45
  -6  -6  -1    5.99    1.08
  -6  -6  -1    5.60    0.94
  -6  -6  -1    2.13    0.47
  -6  -6  -2  115.06    3.70
  -6  -6  -2  120.60    2.87
  -6  -6  -2  115.38    2.78
  -6  -6  -2  112.99    2.91
  -6  -6  -3   56.80    1.96
  -6  -6  -3   62.16    3.01
  -6  -6  -3   56.15    2.60
  -6  -6  -3   55.75    1.75
  -6  -6  -3   56.74    1.84
  -6  -6  -3   55.93    1.93
  -6  -6  -4  113.04    3.03
  -6  -6  -4  118.53    3.86
  -6  -6  -4  107.49    2.66
  -6  -6  -4  111.20    2.87
  -6  -6  -4  112.57    3.05
  -6  -6  -5  795.75   13.55
  -6  -6  -5  827.88   14.31
  -6  -6  -5  814.19   13.36
  -6  -6  -6   45.99    1.77
  -6  -6  -6   45.14    1.83
  -6  -6  -7  617.50   11.01
  -6  -6  -7  620.40   10.70
  -6  -6  -7  608.34   10.84
  -6  -6  -7  645.90   11.01
  -6  -6  -8 1473.83   23.35
  -6  -6  -8 1477.53   23.63
  -6  -6  -9  600.73   10.69
  -6  -6  -9  635.67   11.12
  -6  -6  -9  604.38   11.04
  -6  -6 -10    9.75    1.00
  -6  -6 -10    9.88    1.07
  -6  -6 -10   10.48    1.07
  -6  -6 -11    6.95    0.86
  -6  -6 -11    7.64    0.90
  -6  -6 -11    7.12    0.83
  -6  -6 -12   46.84    1.78
  -6  -6 -12   44.75    1.74
  -6  -6 -12   43.67    1.87
  -6  -6 -13   44.77    1.50
  -6  -6 -13   44.26    1.49
  -6  -6 -13   47.67    1.44
  -6  -6 -13   43.36    1.58
  -6  -6 -14   10.74    0.64
  -6  -7   8    0.15    0.51
  -6  -7   8    0.39    0.54
  -6  -7   8    0.47    0.47
   6   7  -7   83.05    1.96
  -6  -7   7   90.02    2.93
  -6  -7   7   83.13    2.81
  -6  -7   7   85.27    2.79
  -6  -7   6  270.12    6.22
  -6  -7   6  280.43    6.39
  -6  -7   5    8.00    1.22
  -6  -7   5    7.87    1.14
  -6  -7   4   97.76    3.54
  -6  -7   3  139.86    3.90
  -6  -7   3  133.57    4.29
  -6  -7   3  138.47    3.38
  -6  -7   2   39.28    2.09
  -6  -7   2   39.66    2.21
  -6  -7   2   39.45    1.99
  -6  -7   2   42.85    2.41
  -6  -7   2   45.76    1.67
  -6  -7   1 1446.27   23.37
  -6  -7   1 1353.22   22.91
  -6  -7   1 1385.13   22.46
  -6  -7   1 1353.66   23.64
  -6  -7   1 1454.87   21.68
  -6  -7   1 1441.95   21.72
  -6  -7   0  804.79   13.98
  -6  -7   0  825.12   12.87
  -6  -7   0  763.71   12.42
  -6  -7   0  770.55   12.40
  -6  -7  -1   25.33    1.31
  -6  -7  -1   21.20    1.15
  -6  -7  -1   21.68    1.09
  -6  -7  -1   21.45    1.15
  -6  -7  -2  248.52    5.02
  -6  -7  -2  255.44    5.15
  -6  -7  -3   24.24    1.21
  -6  -7  -3   25.64    1.98
  -6  -7  -3   23.66    1.20
  -6  -7  -3   24.55    1.28
  -6  -7  -4   15.44    1.67
  -6  -7  -4   14.38    0.94
  -6  -7  -4   15.61    1.01
  -6  -7  -4   14.92    1.04
  -6  -7  -5   10.83    0.95
  -6  -7  -5   10.23    1.36
  -6  -7  -5    9.73    0.82
  -6  -7  -5   10.49    0.89
  -6  -7  -5   11.25    0.96
  -6  -7  -6   98.28    2.92
  -6  -7  -6  110.85    3.77
  -6  -7  -6   88.67    3.20
  -6  -7  -6   99.90    2.85
  -6  -7  -6  102.97    3.07
  -6  -7  -7  240.00    5.30
  -6  -7  -7  233.28    5.21
  -6  -7  -7  234.35    5.40
  -6  -7  -8  322.78    6.85
  -6  -7  -8  330.73    6.72
  -6  -7  -8  339.38    6.99
  -6  -7  -9  116.35    3.55
  -6  -7  -9  115.63    3.40
  -6  -7  -9  105.53    3.37
  -6  -7  -9  119.09    3.65
  -6  -7 -10    3.27    0.86
  -6  -7 -10    4.00    0.81
  -6  -7 -10    4.91    0.88
  -6  -7 -10    2.33    0.72
  -6  -7 -10    3.54    0.80
  -6  -7 -11  125.41    3.48
  -6  -7 -11  123.28    3.43
  -6  -7 -11  129.71    3.31
  -6  -7 -11  117.75    3.59
  -6  -7 -12   55.75    1.93
  -6  -7 -12   54.39    1.95
  -6  -7 -12   57.80    1.82
  -6  -7 -12   51.60    2.01
  -6  -7 -13    0.46    0.40
  -6  -7 -13    0.78    0.34
  -6  -7 -13    0.61    0.35
  -6  -7 -14  110.72    2.35
  -6  -8   7   23.84    1.29
  -6  -8   7   23.44    1.21
  -6  -8   6   13.91    1.23
  -6  -8   5   81.01    3.00
  -6  -8   5   83.90    3.11
  -6  -8   4    1.78    0.87
  -6  -8   3  454.48    8.68
  -6  -8   3  439.65    9.19
  -6  -8   2  325.06    7.26
  -6  -8   2  337.56    7.13
  -6  -8   2  333.12    7.57
  -6  -8   2  335.55    6.21
  -6  -8   1   85.92    3.31
  -6  -8   1   82.62    2.95
  -6  -8   1   79.51    3.34
  -6  -8   1   86.13    2.36
  -6  -8   0    6.55    1.28
  -6  -8   0    5.64    0.77
  -6  -8   0    6.78    0.93
  -6  -8   0    4.34    0.96
  -6  -8   0    5.87    0.67
  -6  -8   0    7.26    0.71
  -6  -8  -1  220.38    5.87
  -6  -8  -1  233.91    4.91
  -6  -8  -1  194.73    5.28
  -6  -8  -1  204.34    4.32
  -6  -8  -1  221.08    4.49
  -6  -8  -1  220.25    4.48
  -6  -8  -1  219.95    4.49
  -6  -8  -2   93.46    3.55
  -6  -8  -2   99.76    2.63
  -6  -8  -2  100.19    2.72
  -6  -8  -2  101.27    2.72
  -6  -8  -3    3.07    0.59
  -6  -8  -3    3.31    0.59
  -6  -8  -3    2.59    0.53
  -6  -8  -3    3.45    1.15
  -6  -8  -3    3.07    0.59
  -6  -8  -4   72.53    2.31
  -6  -8  -4   71.51    2.23
  -6  -8  -4   73.33    2.29
  -6  -8  -4   75.73    2.37
  -6  -8  -5   10.43    0.94
  -6  -8  -5    8.77    1.52
  -6  -8  -5    9.57    0.87
  -6  -8  -5    9.45    0.85
  -6  -8  -5    9.95    0.88
  -6  -8  -5    9.66    0.90
  -6  -8  -6   16.56    1.16
  -6  -8  -6   13.34    1.45
  -6  -8  -6   15.20    1.10
  -6  -8  -6   16.73    1.19
  -6  -8  -7   27.15    1.49
  -6  -8  -7   27.37    1.52
  -6  -8  -8  388.99    7.55
  -6  -8  -8  370.98    7.50
  -6  -8  -8  389.25    7.66
  -6  -8  -9   82.08    2.78
  -6  -8  -9   78.55    2.81
  -6  -8 -10  304.50    6.40
  -6  -8 -10  300.90    6.33
  -6  -8 -10  314.35    6.65
  -6  -8 -11    6.19    0.79
  -6  -8 -11    7.24    0.80
  -6  -8 -12  124.51    2.97
  -6  -8 -12  130.91    2.94
  -6  -8 -13  169.00    3.29
  -6  -8 -13  163.66    3.53
  -6  -9   6  190.87    4.00
  -6  -9   6  177.34    3.88
  -6  -9   5   64.37    2.33
  -6  -9   5   63.56    2.39
  -6  -9   4  188.20    4.69
  -6  -9   4  178.96    4.80
  -6  -9   3   99.49    3.01
  -6  -9   3   92.39    3.25
  -6  -9   2  242.79    5.59
  -6  -9   2  235.48    5.84
  -6  -9   1  548.13   10.86
  -6  -9   1  570.35   10.59
  -6  -9   1  575.60   11.07
  -6  -9   1  580.07    9.49
  -6  -9   0   13.58    1.57
  -6  -9   0   15.02    1.30
  -6  -9   0   14.10    0.89
  -6  -9  -1   53.21    2.78
  -6  -9  -1   58.29    2.21
  -6  -9  -1   51.84    1.84
  -6  -9  -1   54.40    1.90
  -6  -9  -1   53.25    1.77
  -6  -9  -2  384.57    7.05
  -6  -9  -2  383.43    6.96
  -6  -9  -3   63.53    2.09
  -6  -9  -3   63.80    2.14
  -6  -9  -3   61.56    2.04
  -6  -9  -4    4.92    0.69
  -6  -9  -4    4.73    0.72
  -6  -9  -4    6.32    0.72
  -6  -9  -5   95.14    2.76
  -6  -9  -5   97.83    2.77
  -6  -9  -5   99.25    2.78
  -6  -9  -6  186.73    4.28
  -6  -9  -6  186.52    4.26
  -6  -9  -6  188.70    4.27
  -6  -9  -7   29.37    1.50
  -6  -9  -8  152.61    3.86
  -6  -9  -8  150.51    3.86
  -6  -9  -8  147.70    3.79
  -6  -9  -9   12.17    1.05
  -6  -9  -9   11.44    1.07
  -6  -9  -9   11.64    1.03
  -6  -9 -10    1.28    0.59
  -6  -9 -10    1.07    0.60
  -6  -9 -10    1.45    0.56
  -6  -9 -11  218.24    4.50
  -6  -9 -11  196.24    4.55
  -6  -9 -12  153.52    3.17
  -6  -9 -12  155.50    3.15
  -6  -9 -13   25.76    0.86
  -6  -9 -13   23.52    0.95
  -6 -10   4    0.56    0.60
  -6 -10   3  255.53    5.57
  -6 -10   3  266.22    5.90
  -6 -10   2  306.87    6.11
  -6 -10   2  286.71    6.33
  -6 -10   1   51.80    2.29
  -6 -10   1   57.37    2.35
  -6 -10   1   57.78    2.45
  -6 -10   0   13.39    1.46
  -6 -10   0   13.17    1.26
   6  10   0   11.65    0.94
  -6 -10  -1    7.38    1.33
  -6 -10  -1    5.82    0.93
  -6 -10  -2    5.15    1.30
  -6 -10  -2    6.05    0.72
  -6 -10  -2    6.03    0.75
  -6 -10  -3   18.36    1.12
  -6 -10  -3   18.29    1.16
  -6 -10  -3   16.54    0.94
  -6 -10  -4   46.51    1.79
  -6 -10  -4   46.44    1.80
  -6 -10  -4   42.83    1.56
  -6 -10  -5   12.29    0.97
  -6 -10  -5   13.95    1.02
  -6 -10  -5   11.90    0.84
  -6 -10  -6   56.39    2.02
  -6 -10  -6   56.76    2.02
  -6 -10  -6   53.36    1.84
  -6 -10  -7   23.25    1.30
  -6 -10  -7   24.45    1.23
  -6 -10  -8   45.46    1.84
  -6 -10  -8   47.51    1.90
  -6 -10  -8   44.68    1.72
  -6 -10  -9   12.15    1.00
  -6 -10  -9   12.38    1.02
  -6 -10  -9   13.36    0.97
  -6 -10 -10  156.02    3.72
  -6 -10 -10  159.53    3.71
  -6 -10 -11   63.92    2.07
  -6 -10 -11   65.37    1.93
  -6 -10 -12   14.02    0.85
  -6 -10 -12   14.75    0.74
  -6 -10 -12   12.29    0.72
  -6 -10 -13   12.93    0.65
  -6 -11   3  129.77    3.13
  -6 -11   2  149.32    3.55
  -6 -11   2  161.47    3.92
  -6 -11   1  162.71    3.73
  -6 -11   1  145.22    3.71
  -6 -11   0   19.87    1.41
  -6 -11   0   21.14    1.38
   6  11   0   20.78    1.09
  -6 -11  -1  118.25    3.75
   6  11   1  125.01    3.06
  -6 -11  -2  174.80    4.98
   6  11   2  185.71    4.07
  -6 -11  -3  245.26    6.31
  -6 -11  -4    2.59    0.60
  -6 -11  -4    2.97    0.63
  -6 -11  -5  451.36    7.92
  -6 -11  -5  446.92    7.92
  -6 -11  -6  243.82    4.89
  -6 -11  -6  233.91    4.86
  -6 -11  -7   19.24    1.72
  -6 -11  -7   20.35    1.17
  -6 -11  -8  302.22    5.69
  -6 -11  -8  315.39    5.80
  -6 -11  -9  421.11    7.41
  -6 -11  -9  399.60    7.32
  -6 -11 -10    9.08    0.81
  -6 -11 -10    8.74    0.76
  -6 -11 -11   30.54    1.28
  -6 -11 -11   31.93    1.16
  -6 -11 -12   17.00    0.80
  -6 -12   0   80.03    2.13
  -6 -12   0   73.28    2.34
  -6 -12  -1   99.31    2.86
  -6 -12  -1  115.85    2.89
   6  12   1  111.51    2.53
  -6 -12  -1  103.50    3.00
  -6 -12  -2    9.73    1.12
  -6 -12  -2   10.25    0.95
   6  12   2    9.25    0.78
  -6 -12  -3   58.78    2.49
  -6 -12  -3   61.91    2.06
   6  12   3   58.46    1.86
  -6 -12  -4   46.15    2.36
  -6 -12  -4   50.45    1.78
   6  12   4   47.31    1.68
  -6 -12  -5  165.49    4.85
  -6 -12  -5  177.10    3.66
  -6 -12  -6  104.83    3.74
  -6 -12  -6  118.97    2.77
  -6 -12  -7  270.85    5.00
  -6 -12  -7  274.53    5.07
  -6 -12  -8    1.33    0.48
  -6 -12  -8    0.80    0.74
  -6 -12  -8    0.79    0.43
  -6 -12  -9    7.07    0.65
  -6 -12  -9    5.55    0.62
  -6 -12 -10    9.77    0.70
  -6 -12 -10    7.26    0.60
  -6 -12 -11    5.21    0.49
  -6 -13  -3   33.87    1.48
   6  13   3   35.30    1.17
  -6 -13  -4   25.94    1.47
  -6 -13  -4   25.73    1.13
   6  13   4   28.08    1.08
   6  13   5    9.07    0.69
  -6 -13  -6    5.62    0.97
  -6 -13  -7   42.09    1.82
   6  13   7   48.26    1.50
  -6 -13  -8   39.64    1.59
  -6 -13  -8   59.98    1.50
  -6 -13  -9   29.01    0.99
  -7   8   5   14.19    0.73
  -7   8   3    3.94    0.44
  -7   7   8    4.12    0.51
  -7   7   8    4.27    0.55
  -7   7   7   96.67    2.46
  -7   7   7  100.08    2.51
  -7   7   6   12.47    0.90
  -7   7   6   12.28    0.86
  -7   7   5    5.39    0.69
  -7   7   4   21.49    1.13
  -7   7   3   48.32    1.61
  -7   7   3   49.14    1.45
  -7   7   2    8.41    0.63
  -7   7   1    4.58    0.58
  -7   7   1    3.90    0.68
  -7   7   1    4.41    0.51
  -7   7   0  172.49    3.28
  -7   7   0  157.64    3.35
  -7   7  -1  281.46    4.89
   7  -7   1  290.53    5.30
  -7   6  10    8.03    0.68
  -7   6  10    7.08    0.61
  -7   6   9  141.49    3.37
  -7   6   9  137.69    3.28
  -7   6   8    1.36    0.57
  -7   6   8    1.60    0.57
  -7   6   8    1.21    0.58
  -7   6   7   62.99    2.24
  -7   6   7   70.73    2.34
  -7   6   7   67.05    2.30
  -7   6   6   55.13    2.14
  -7   6   6   57.44    2.10
  -7   6   5   41.91    1.83
  -7   6   5   42.52    1.74
  -7   6   4   28.78    1.48
  -7   6   4   27.88    1.40
  -7   6   3   19.65    1.20
  -7   6   3   19.55    1.18
  -7   6   2    1.13    0.60
  -7   6   2    1.87    0.61
  -7   6   1   16.80    1.30
  -7   6   1   16.93    0.99
  -7   6   0  142.12    3.26
  -7   6   0  136.53    3.48
  -7   6  -1    2.38    0.63
  -7   6  -1    1.98    0.56
  -7   6  -1    2.06    0.54
  -7   6  -2   28.13    1.18
  -7   6  -2   28.10    1.22
  -7   6  -3   12.83    0.76
  -7   6  -3   12.33    0.75
   7  -6   3   13.04    0.85
  -7   6  -3   13.41    0.84
  -7   5  10    5.71    0.68
  -7   5   9  318.92    6.59
  -7   5   9  326.91    6.49
  -7   5   8    0.23    0.65
  -7   5   8   -0.08    0.64
  -7   5   7   18.73    1.38
  -7   5   7   19.45    1.42
  -7   5   7   19.89    1.42
  -7   5   6    3.28    0.77
  -7   5   6    1.84    0.82
  -7   5   6    2.00    0.71
  -7   5   5    8.32    1.06
  -7   5   5    9.63    1.03
  -7   5   5    9.27    1.00
  -7   5   4   25.94    1.55
  -7   5   4   26.37    1.38
  -7   5   4   27.98    1.62
  -7   5   4   27.03    1.54
  -7   5   3   22.83    1.39
  -7   5   3   22.22    1.30
  -7   5   3   23.07    1.41
  -7   5   2   82.69    2.59
  -7   5   2   83.15    2.57
  -7   5   2   85.49    2.70
  -7   5   1   16.56    1.19
  -7   5   1   17.15    1.40
  -7   5   1   19.08    1.28
  -7   5   1   17.46    1.20
  -7   5   0   34.45    1.58
  -7   5   0   33.23    1.75
  -7   5   0   34.93    1.71
  -7   5   0   34.18    1.50
  -7   5  -1   13.73    1.14
  -7   5  -1   13.60    0.98
  -7   5  -2    4.85    0.74
  -7   5  -2    4.38    0.76
  -7   5  -3  113.39    2.79
  -7   5  -3  111.52    2.83
  -7   5  -3  104.70    2.72
  -7   5  -4   80.26    2.12
  -7   5  -4   76.98    2.11
   7  -5   4   76.91    2.20
  -7   5  -5  212.88    3.84
  -7   4  11  150.05    3.38
  -7   4  11  139.81    3.01
  -7   4  10    8.36    0.97
  -7   4  10    8.57    0.87
  -7   4   9    5.14    0.99
  -7   4   9    5.05    0.90
  -7   4   8   74.58    3.06
  -7   4   8   71.47    2.82
  -7   4   7    2.14    0.84
  -7   4   6  239.28    5.83
  -7   4   6  242.52    5.90
  -7   4   5   23.30    1.51
  -7   4   5   20.82    1.54
  -7   4   5   20.57    1.28
  -7   4   5   21.22    1.50
  -7   4   4   68.77    2.61
  -7   4   4   68.20    2.57
  -7   4   4   68.77    2.33
  -7   4   4   69.45    2.67
  -7   4   4   72.32    2.63
  -7   4   3    0.81    0.72
  -7   4   3    0.84    0.61
  -7   4   3    1.27    0.68
  -7   4   3    1.41    0.69
  -7   4   3    1.44    0.68
  -7   4   2    9.72    1.04
  -7   4   2   10.72    1.05
  -7   4   2   10.10    0.99
  -7   4   2   11.01    1.05
  -7   4   1    3.56    0.72
  -7   4   1    4.38    0.78
  -7   4   1    4.37    0.81
  -7   4   1    4.08    0.77
  -7   4   0   14.89    1.17
  -7   4   0   13.06    1.23
  -7   4   0   15.49    1.21
  -7   4   0   15.47    1.19
  -7   4  -1  293.86    5.85
  -7   4  -1  286.95    6.08
  -7   4  -1  288.20    5.70
  -7   4  -2  231.27    5.11
  -7   4  -2  233.75    4.84
  -7   4  -3    0.61    0.63
  -7   4  -3    1.67    0.68
  -7   4  -3    1.18    0.68
  -7   4  -4   44.83    1.76
  -7   4  -4   47.33    1.79
  -7   4  -4   43.16    1.74
   7  -4   4   41.06    1.89
  -7   4  -5   27.81    1.29
  -7   4  -5   26.77    1.34
  -7   4  -6    2.28    0.45
  -7   4  -6    3.28    0.54
  -7   4  -6    2.92    0.60
  -7   4  -7   15.96    0.76
  -7   3  11   11.39    0.94
  -7   3  10   29.48    1.74
  -7   3  10   35.31    1.78
  -7   3   9   32.08    2.11
  -7   3   9   41.74    2.13
  -7   3   8   63.69    2.03
  -7   3   8   59.58    2.74
  -7   3   8   62.51    2.30
  -7   3   7  102.43    2.82
  -7   3   7  101.52    3.29
  -7   3   6  201.67    4.56
  -7   3   6  203.65    5.17
  -7   3   5    2.47    0.76
  -7   3   5    2.43    0.82
  -7   3   5    2.53    0.85
  -7   3   5    2.00    0.79
  -7   3   5    1.67    0.77
  -7   3   4    2.40    0.79
  -7   3   4    0.75    0.71
  -7   3   4    3.42    0.83
  -7   3   4    0.80    0.67
  -7   3   3    4.18    0.87
  -7   3   3    5.27    0.83
  -7   3   3    4.02    0.78
  -7   3   3    5.15    0.90
  -7   3   3    3.64    0.80
  -7   3   3    3.73    0.79
  -7   3   2  284.72    6.03
  -7   3   2  279.80    5.80
  -7   3   2  284.63    5.84
  -7   3   2  301.10    6.33
  -7   3   2  285.48    6.03
   7  -3  -2  281.50    5.47
  -7   3   1  589.13   10.48
  -7   3   1  607.37   10.50
  -7   3   1  623.83   10.54
  -7   3   1  617.95   10.71
  -7   3   0   23.12    1.29
  -7   3   0   25.48    1.45
  -7   3   0   26.58    1.59
  -7   3   0   26.27    1.44
  -7   3   0   24.28    1.42
  -7   3  -1   27.42    1.49
  -7   3  -1   27.30    1.62
  -7   3  -1   29.11    1.54
  -7   3  -2   32.13    1.60
  -7   3  -2   31.44    1.68
  -7   3  -2   32.93    1.68
  -7   3  -2   33.00    1.56
  -7   3  -3  231.84    5.00
  -7   3  -3  227.89    5.09
  -7   3  -3  223.34    5.06
  -7   3  -3  237.63    4.92
  -7   3  -4   18.87    1.28
  -7   3  -4   18.95    1.27
  -7   3  -5   54.92    2.13
  -7   3  -5   59.89    2.11
  -7   3  -5   61.01    2.11
  -7   3  -6   95.41    2.68
  -7   3  -6  103.10    2.70
  -7   3  -6  104.60    2.76
  -7   3  -7    8.96    0.72
  -7   3  -7   10.76    0.80
  -7   3  -7   10.48    0.84
  -7   3  -8   18.92    0.80
  -7   3  -8   22.24    0.84
  -7   3  -8   21.19    0.85
  -7   3  -8   20.72    0.90
  -7   2  11   15.40    1.07
  -7   2  11   18.01    1.15
  -7   2  10    0.12    0.64
  -7   2  10    0.70    0.66
  -7   2   9    7.80    1.26
  -7   2   9    5.31    1.01
  -7   2   9    5.15    0.71
  -7   2   8  105.02    2.74
  -7   2   8  104.03    3.15
  -7   2   7    7.36    0.81
  -7   2   7    5.17    1.24
  -7   2   7    6.17    1.13
  -7   2   7    8.10    1.04
  -7   2   6    0.36    0.54
  -7   2   6    0.66    0.84
  -7   2   6    1.43    0.79
  -7   2   6    1.38    0.81
  -7   2   5   25.72    1.45
  -7   2   5   24.30    1.77
  -7   2   5   24.58    1.69
  -7   2   5   23.91    1.69
  -7   2   4   34.86    1.74
   7  -2  -4   36.93    1.64
  -7   2   4   31.69    1.91
  -7   2   4   33.20    1.89
  -7   2   4   30.68    1.87
  -7   2   4   31.90    1.71
  -7   2   3    5.47    0.90
   7  -2  -3    5.41    0.69
  -7   2   3    5.98    0.81
  -7   2   3    7.10    0.95
  -7   2   3    4.88    0.79
  -7   2   3    6.45    0.99
  -7   2   2   22.25    1.44
   7  -2  -2   23.38    1.20
  -7   2   2   21.58    1.27
  -7   2   2   22.30    1.51
  -7   2   2   23.30    1.48
  -7   2   2   21.90    1.35
   7  -2  -1    6.93    0.68
  -7   2   1    6.96    0.88
  -7   2   1    6.68    0.80
  -7   2   1    7.14    0.91
  -7   2   1    6.72    0.94
  -7   2   1    7.14    0.94
  -7   2   1    8.20    0.88
  -7   2   0   63.12    2.15
  -7   2   0   64.77    2.19
  -7   2   0   69.19    2.47
  -7   2   0   66.25    2.26
  -7   2  -1 1172.26   18.52
  -7   2  -1 1187.65   18.83
  -7   2  -1 1198.07   18.55
  -7   2  -1 1170.79   18.57
  -7   2  -2 2622.47   37.90
  -7   2  -2 2605.85   38.12
  -7   2  -2 2609.52   37.83
  -7   2  -3   92.92    2.80
  -7   2  -3   91.65    2.88
  -7   2  -3   92.05    2.72
  -7   2  -4  432.35    8.15
  -7   2  -4  429.36    8.05
  -7   2  -5   37.09    1.85
  -7   2  -5   40.85    1.83
  -7   2  -6   86.30    2.77
  -7   2  -6   91.47    2.73
  -7   2  -6   93.60    2.79
  -7   2  -7    2.24    0.59
  -7   2  -7    2.42    0.70
  -7   2  -7    3.51    0.79
  -7   2  -8    6.77    0.67
  -7   2  -8    6.99    0.71
  -7   2  -8    6.85    0.76
  -7   2  -9    8.37    0.59
  -7   2  -9    8.19    0.58
  -7   2  -9    8.27    0.58
  -7   1  12  133.59    2.93
   7  -1 -11    9.61    0.67
  -7   1  11    9.36    0.84
  -7   1  11    9.99    0.93
   7  -1 -10  111.07    2.57
  -7   1  10  107.23    3.38
   7  -1  -9    2.06    0.51
  -7   1   9    0.79    0.86
  -7   1   9    1.99    0.60
   7  -1  -8   69.55    1.99
  -7   1   8   66.57    3.09
  -7   1   8   75.49    2.63
  -7   1   7  152.79    3.54
  -7   1   7  129.81    4.92
  -7   1   7  135.90    4.64
  -7   1   7  156.55    4.33
  -7   1   6    6.20    0.76
  -7   1   6    5.85    1.27
  -7   1   6    6.38    1.08
  -7   1   6    6.67    1.08
  -7   1   5    9.84    0.94
  -7   1   5   10.32    1.28
  -7   1   5    8.10    1.12
  -7   1   5    7.94    1.15
  -7   1   4   48.25    1.93
  -7   1   4   46.07    2.23
  -7   1   4   43.22    2.14
  -7   1   4   40.72    2.13
   7  -1  -4   41.07    1.76
  -7   1   3  298.39    6.67
  -7   1   3  333.75    6.89
   7  -1  -3  332.87    6.19
  -7   1   3  302.67    6.77
  -7   1   2    0.23    0.65
  -7   1   2    0.27    0.55
   7  -1  -2    0.13    0.41
  -7   1   2   -0.14    0.57
  -7   1   2    0.27    0.48
  -7   1   1  177.95    4.20
  -7   1   1  164.60    3.78
  -7   1   1  174.70    4.39
   7  -1  -1  181.05    3.74
  -7   1   1  172.49    4.32
  -7   1   1  164.64    3.90
  -7   1   0  808.99   13.24
   7  -1   0  844.98   12.78
  -7   1   0  774.79   12.95
  -7   1   0  840.50   13.69
  -7   1   0  784.41   13.10
  -7   1  -1  304.29    5.84
  -7   1  -1  303.68    5.92
  -7   1  -1  317.82    6.11
  -7   1  -1  325.54    6.30
  -7   1  -1  300.94    5.96
  -7   1  -2    2.33    0.72
  -7   1  -2    3.46    0.74
  -7   1  -2    4.04    0.72
  -7   1  -2    2.34    0.62
  -7   1  -3  109.65    3.04
  -7   1  -3  107.32    3.09
  -7   1  -3  102.86    2.85
  -7   1  -3  106.43    2.89
  -7   1  -3  106.65    3.05
  -7   1  -4    0.93    0.64
  -7   1  -4    0.38    0.64
  -7   1  -4    1.72    0.71
  -7   1  -4    0.03    0.67
  -7   1  -4    0.27    0.62
  -7   1  -5   56.33    2.34
  -7   1  -5   57.93    2.24
  -7   1  -5   58.80    2.21
  -7   1  -5   58.58    2.21
  -7   1  -6   46.45    2.03
  -7   1  -6   46.06    2.01
  -7   1  -6   44.47    1.96
  -7   1  -7  459.23    8.38
  -7   1  -7  455.33    8.24
  -7   1  -8   25.23    1.32
  -7   1  -8   25.91    1.33
  -7   1  -8   26.56    1.34
  -7   1  -9   12.20    0.83
  -7   1  -9   12.11    0.88
  -7   1  -9   11.97    0.82
  -7   1  -9   11.01    0.84
  -7   1 -10   58.88    1.47
  -7   1 -10   55.65    1.51
   7   0 -11    0.86    0.43
  -7   0  11    0.93    0.56
   7   0 -10   35.25    1.33
   7   0  -9  309.84    5.53
  -7   0   9  279.44    6.71
  -7   0   9  280.08    6.85
  -7   0   9  298.96    6.01
   7   0  -8   77.84    2.18
  -7   0   8   72.70    3.29
  -7   0   8   80.32    2.81
   7   0  -7   34.43    1.38
  -7   0   7   28.16    2.22
  -7   0   7   29.36    2.22
  -7   0   7   36.86    2.06
   7   0  -6   58.05    1.81
  -7   0   6   58.92    2.03
  -7   0   6   56.60    2.92
  -7   0   6   53.50    2.79
  -7   0   6   60.53    2.71
  -7   0   5  144.84    3.53
  -7   0   5  143.26    4.40
  -7   0   5  142.67    4.38
  -7   0   5  139.76    4.34
  -7   0   4   69.13    2.28
   7   0  -4   57.02    2.16
  -7   0   4   64.82    2.61
  -7   0   4   69.03    2.70
  -7   0   4   61.64    2.72
   7   0  -3    0.55    0.44
  -7   0   3    0.73    0.59
  -7   0   3    0.48    0.56
  -7   0   3    0.55    0.55
  -7   0   3    0.62    0.64
  -7   0   2   47.07    2.03
   7   0  -2   47.38    1.73
  -7   0   2   43.89    1.94
  -7   0   2   49.38    2.07
  -7   0   2   49.42    2.11
  -7   0   1  273.60    5.83
  -7   0   1  261.09    5.74
  -7   0   1  276.59    5.86
   7   0  -1  277.19    5.23
  -7   0   0  167.21    4.10
  -7   0   0  177.02    4.26
   7   0   0  179.19    3.62
  -7   0   0  175.82    4.20
  -7   0  -1  154.09    3.66
  -7   0  -1  148.23    3.41
  -7   0  -2  329.05    6.13
  -7   0  -2  330.83    6.25
  -7   0  -3  106.93    2.89
  -7   0  -3  109.94    3.04
  -7   0  -3  105.51    2.82
  -7   0  -3  103.61    2.77
  -7   0  -3  104.91    2.93
  -7   0  -4  385.81    7.51
  -7   0  -4  403.26    7.32
  -7   0  -4  377.91    7.25
  -7   0  -4  379.33    6.98
  -7   0  -4  389.28    7.09
  -7   0  -4  371.30    7.16
  -7   0  -5   40.51    1.97
  -7   0  -5   38.05    1.84
  -7   0  -5   39.77    1.69
  -7   0  -5   38.15    1.73
  -7   0  -5   36.79    1.67
  -7   0  -6  267.52    5.93
  -7   0  -6  256.95    5.64
  -7   0  -6  269.94    5.66
  -7   0  -7  625.41   10.96
  -7   0  -7  637.61   10.89
  -7   0  -7  613.14   10.65
  -7   0  -8  307.17    6.00
  -7   0  -8  306.38    5.82
  -7   0  -9  114.68    2.91
  -7   0  -9  120.02    2.94
  -7   0  -9  111.91    2.81
  -7   0 -10    8.20    0.75
  -7   0 -10    7.01    0.64
  -7   0 -10    8.66    0.70
  -7   0 -10    8.40    0.70
   7   1 -11    3.87    0.51
   7   1 -10  252.91    4.72
   7   1  -9   17.16    1.07
  -7  -1   9   16.87    1.54
  -7  -1   9   16.69    1.19
   7   1  -8  230.82    4.59
  -7  -1   8  217.42    6.18
  -7  -1   8  229.84    5.43
   7   1  -7  547.16    9.11
  -7  -1   7  565.16   10.49
  -7  -1   6   31.49    1.49
  -7  -1   6   28.74    2.16
  -7  -1   6   31.41    2.01
  -7  -1   5   73.13    2.32
  -7  -1   5   69.83    3.10
  -7  -1   5   69.09    2.99
   7   1  -5   65.80    2.35
  -7  -1   4   12.21    1.05
  -7  -1   4   12.02    1.23
   7   1  -3   11.05    0.94
  -7  -1   3   12.89    1.10
  -7  -1   3   12.78    1.15
  -7  -1   3   10.78    1.18
  -7  -1   2   31.39    1.62
  -7  -1   2   31.04    1.73
   7   1  -2   33.77    1.46
  -7  -1   1  191.96    4.61
  -7  -1   1  191.12    4.38
   7   1  -1  199.34    4.08
  -7  -1   1  193.10    3.88
  -7  -1   1  197.45    4.65
  -7  -1   1  203.29    4.69
   7   1   0  116.92    2.70
  -7  -1   0  111.01    3.05
  -7  -1   0  117.79    3.24
  -7  -1   0  118.93    3.29
  -7  -1  -1    2.64    0.65
  -7  -1  -1    2.23    0.59
  -7  -1  -1    1.32    0.53
  -7  -1  -2  378.23    6.95
  -7  -1  -3  104.71    2.72
  -7  -1  -3  104.74    2.73
  -7  -1  -3  101.92    2.64
  -7  -1  -3  109.38    2.91
  -7  -1  -4  277.14    5.65
  -7  -1  -4  265.67    5.36
  -7  -1  -4  260.98    5.15
  -7  -1  -4  267.73    5.24
  -7  -1  -4  267.75    5.46
  -7  -1  -5 1042.74   17.16
  -7  -1  -5 1054.90   16.75
  -7  -1  -5 1082.22   16.63
  -7  -1  -5 1026.78   16.71
  -7  -1  -6  252.62    5.65
  -7  -1  -6  251.28    5.40
  -7  -1  -6  245.83    5.32
  -7  -1  -6  253.07    5.17
  -7  -1  -7  145.70    3.91
  -7  -1  -7  152.11    3.81
  -7  -1  -7  144.43    3.55
  -7  -1  -8    0.74    0.63
  -7  -1  -8    1.29    0.77
  -7  -1  -8    1.10    0.74
  -7  -1  -8    1.44    0.72
  -7  -1  -9    0.16    0.52
  -7  -1  -9    0.34    0.57
  -7  -1  -9    0.45    0.63
  -7  -1 -10    2.18    0.54
  -7  -1 -10    1.31    0.52
  -7  -1 -10    1.56    0.54
  -7  -1 -11   64.58    1.83
  -7  -1 -11   67.88    1.79
   7   2 -10   -0.35    0.53
  -7  -2  10    0.20    0.64
   7   2  -9  212.37    4.21
  -7  -2   9  210.52    5.41
  -7  -2   9  206.97    4.73
   7   2  -8   61.19    2.02
  -7  -2   8   61.96    2.75
  -7  -2   8   59.92    2.91
  -7  -2   8   60.98    2.49
   7   2  -7  116.62    3.01
  -7  -2   7  119.74    4.09
  -7  -2   7  113.65    4.35
  -7  -2   7  121.51    3.84
  -7  -2   6  269.71    7.53
  -7  -2   6  324.81    7.19
  -7  -2   5    0.68    0.58
   7   2  -5    0.64    0.50
  -7  -2   5    0.32    0.85
  -7  -2   5    1.33    0.90
  -7  -2   4   21.83    1.33
  -7  -2   4   19.65    1.69
  -7  -2   4   21.86    1.68
  -7  -2   4   22.14    1.08
  -7  -2   4   23.11    1.33
  -7  -2   3    4.60    0.81
  -7  -2   3    3.35    0.84
  -7  -2   3    3.64    0.79
  -7  -2   3    2.97    0.87
  -7  -2   3    5.38    0.79
  -7  -2   2    8.24    1.01
  -7  -2   2    6.32    0.87
  -7  -2   2    6.74    0.67
  -7  -2   2    7.74    0.90
  -7  -2   1 1382.46   20.72
  -7  -2   1 1369.60   21.76
   7   2   0    1.96    0.45
  -7  -2   0    1.13    0.68
  -7  -2   0    1.03    0.61
  -7  -2   0    0.66    0.35
  -7  -2   0    1.17    0.55
  -7  -2  -1  417.48    7.93
  -7  -2  -1  417.35    8.07
  -7  -2  -1  416.57    7.19
   7   2   1  431.83    7.09
  -7  -2  -2  179.93    4.11
  -7  -2  -2  174.89    4.15
  -7  -2  -3  690.01   11.11
  -7  -2  -3  658.76   11.10
  -7  -2  -4   42.59    1.72
  -7  -2  -4   37.95    1.58
  -7  -2  -4   40.20    1.50
  -7  -2  -4   39.47    1.65
  -7  -2  -5   10.02    0.99
  -7  -2  -5   11.69    0.98
  -7  -2  -5    9.19    0.88
  -7  -2  -5   10.39    0.94
  -7  -2  -5   12.42    0.99
  -7  -2  -6   56.40    2.30
  -7  -2  -6   55.95    2.07
  -7  -2  -6   55.85    2.10
  -7  -2  -6   56.91    2.24
  -7  -2  -6   59.68    2.12
  -7  -2  -7    7.31    0.96
  -7  -2  -7    6.65    0.95
  -7  -2  -7    6.73    1.00
  -7  -2  -8    2.08    0.71
  -7  -2  -8    2.69    0.82
  -7  -2  -8    2.73    0.84
  -7  -2  -8    2.55    0.68
  -7  -2  -9   60.87    2.15
  -7  -2  -9   57.28    2.31
  -7  -2  -9   60.80    2.09
  -7  -2  -9   55.32    2.11
  -7  -2 -10  144.36    3.41
  -7  -2 -10  136.81    3.49
  -7  -2 -10  135.54    3.37
  -7  -2 -11   64.29    1.97
  -7  -2 -11   71.84    2.00
  -7  -2 -12    3.07    0.49
  -7  -2 -12    3.57    0.44
   7   3 -10  165.52    3.30
  -7  -3  10  181.84    4.27
  -7  -3   9   24.70    1.66
  -7  -3   9   24.53    1.37
  -7  -3   8    5.19    1.04
  -7  -3   8    5.51    1.10
  -7  -3   8    4.74    0.94
  -7  -3   7  143.37    4.47
  -7  -3   7  154.17    5.01
  -7  -3   7  154.82    4.40
  -7  -3   6    1.52    1.00
  -7  -3   6    1.88    1.11
  -7  -3   6    1.61    0.94
  -7  -3   5  142.13    3.61
  -7  -3   5  137.38    4.55
  -7  -3   5  144.30    4.43
  -7  -3   4  149.36    3.69
  -7  -3   4  155.71    3.90
  -7  -3   4  135.37    4.59
  -7  -3   4  137.34    4.66
  -7  -3   4  149.88    3.35
  -7  -3   4  154.82    3.84
  -7  -3   3  369.23    6.90
  -7  -3   3  343.68    6.53
  -7  -3   3  348.25    6.88
  -7  -3   3  318.83    7.55
  -7  -3   3  311.41    7.55
  -7  -3   3  333.45    6.01
  -7  -3   2  174.68    4.20
  -7  -3   2  164.58    3.84
  -7  -3   2  184.19    4.44
  -7  -3   2  161.77    4.47
  -7  -3   2  178.16    3.76
  -7  -3   2  163.86    4.70
  -7  -3   2  162.97    3.48
  -7  -3   1   20.68    1.39
  -7  -3   1   21.87    1.50
  -7  -3   1   20.56    1.06
  -7  -3   1   24.32    1.57
  -7  -3   1   20.95    1.00
  -7  -3   0   59.56    2.36
  -7  -3   0   61.93    2.51
  -7  -3   0   55.67    1.82
  -7  -3   0   57.82    2.22
  -7  -3   0   58.23    1.76
  -7  -3  -1   31.84    1.73
  -7  -3  -1   35.50    1.93
  -7  -3  -1   35.09    1.39
  -7  -3  -1   34.91    1.36
  -7  -3  -2 1149.61   19.09
  -7  -3  -2 1167.24   19.30
  -7  -3  -3 1110.05   17.91
  -7  -3  -3 1096.71   18.02
  -7  -3  -4  244.81    4.93
  -7  -3  -4  243.51    4.93
  -7  -3  -5  548.16    9.43
  -7  -3  -5  549.15    9.69
  -7  -3  -5  550.38    9.70
  -7  -3  -5  579.80    9.88
  -7  -3  -6    6.96    0.85
  -7  -3  -6    6.48    0.89
  -7  -3  -6    7.05    0.84
  -7  -3  -6    7.51    0.90
  -7  -3  -6    7.14    0.88
  -7  -3  -7    6.53    0.85
  -7  -3  -7    6.50    0.96
  -7  -3  -7    6.76    0.81
  -7  -3  -7    7.14    0.85
  -7  -3  -7    6.45    0.90
  -7  -3  -7    5.97    0.90
  -7  -3  -8   25.32    1.41
  -7  -3  -8   25.88    1.66
  -7  -3  -8   24.43    1.39
  -7  -3  -8   20.28    1.58
  -7  -3  -8   26.19    1.56
  -7  -3  -9   -0.04    0.63
  -7  -3  -9    1.21    0.65
  -7  -3  -9    0.71    0.63
  -7  -3  -9    0.18    0.70
  -7  -3  -9    0.43    0.57
  -7  -3 -10    0.40    0.52
  -7  -3 -10    1.24    0.67
  -7  -3 -10    0.42    0.59
  -7  -3 -11    5.80    0.77
  -7  -3 -11    6.35    0.74
  -7  -3 -11    6.77    0.72
  -7  -3 -11    4.95    0.65
  -7  -3 -12   59.46    1.76
  -7  -3 -12   60.51    1.70
   7   4 -10   32.93    1.06
  -7  -4  10   35.26    1.55
   7   4  -9   12.27    0.81
  -7  -4   9   12.21    1.14
  -7  -4   9   12.81    1.18
   7   4  -8  115.78    2.81
  -7  -4   8  120.47    3.73
  -7  -4   8  119.83    3.86
  -7  -4   8  120.96    3.53
  -7  -4   7    8.23    1.27
  -7  -4   7    9.04    1.20
  -7  -4   6   60.14    2.79
  -7  -4   6   60.47    3.14
  -7  -4   6   60.63    2.73
  -7  -4   5    2.68    0.99
  -7  -4   5    1.82    1.17
  -7  -4   5    4.15    1.06
  -7  -4   4  127.31    3.45
  -7  -4   4  121.21    3.36
  -7  -4   4  131.58    3.60
  -7  -4   4  117.42    4.20
  -7  -4   4  109.73    4.32
  -7  -4   4  116.36    2.99
  -7  -4   3  196.71    4.62
  -7  -4   3  182.51    4.34
  -7  -4   3  203.13    4.80
  -7  -4   3  174.13    5.33
  -7  -4   3  179.08    5.43
  -7  -4   3  191.90    3.99
  -7  -4   2  393.37    7.65
  -7  -4   2  371.21    7.21
  -7  -4   2  386.28    7.81
  -7  -4   2  370.53    8.16
  -7  -4   2  368.96    8.42
  -7  -4   2  391.19    6.72
  -7  -4   1  295.08    6.33
  -7  -4   1  286.24    5.75
  -7  -4   1  299.57    6.52
  -7  -4   1  285.30    6.68
  -7  -4   1  285.64    5.39
  -7  -4   0  245.81    4.95
  -7  -4   0  248.92    4.91
  -7  -4   0  240.04    5.58
  -7  -4   0  239.64    4.72
  -7  -4  -1  986.92   16.60
  -7  -4  -1  986.14   16.80
  -7  -4  -1  978.02   15.38
  -7  -4  -1  969.60   15.25
  -7  -4  -2  702.83   11.20
  -7  -4  -2  673.52   12.32
  -7  -4  -2  675.47   12.46
  -7  -4  -2  686.57   11.28
  -7  -4  -3   34.66    1.81
  -7  -4  -3   36.01    1.52
  -7  -4  -3   32.94    1.87
  -7  -4  -3   36.24    1.54
  -7  -4  -4  133.84    3.40
  -7  -4  -4  133.44    3.23
  -7  -4  -4  134.57    3.39
  -7  -4  -5   40.75    1.69
  -7  -4  -5   40.91    1.69
  -7  -4  -5   36.07    1.63
  -7  -4  -5   34.91    1.64
  -7  -4  -6  690.80   11.56
  -7  -4  -6  692.63   11.91
  -7  -4  -6  684.20   11.87
  -7  -4  -6  708.80   12.16
  -7  -4  -7   33.22    1.55
  -7  -4  -7   35.02    1.69
  -7  -4  -7   34.45    1.71
  -7  -4  -7   34.19    1.81
  -7  -4  -7   34.30    1.84
  -7  -4  -8   89.50    2.68
  -7  -4  -8   97.24    3.23
  -7  -4  -8   96.51    2.87
  -7  -4  -8   97.54    3.11
  -7  -4  -8   94.61    3.35
  -7  -4  -9   14.52    1.10
  -7  -4  -9   15.91    1.33
  -7  -4  -9   14.75    1.11
  -7  -4  -9   15.54    1.20
  -7  -4  -9   12.30    1.31
  -7  -4 -10   53.00    1.95
  -7  -4 -10   51.11    1.91
  -7  -4 -10   47.59    2.23
  -7  -4 -11    2.91    0.72
  -7  -4 -11    3.69    0.62
  -7  -4 -11    4.02    0.69
  -7  -4 -12   19.52    1.07
  -7  -4 -12   20.86    0.99
   7   5  -9  182.79    3.46
  -7  -5   9  196.05    4.30
  -7  -5   9  194.26    4.35
   7   5  -8   28.30    1.18
  -7  -5   8   30.11    1.74
  -7  -5   8   29.44    1.74
  -7  -5   8   28.93    1.57
   7   5  -7    2.03    0.66
  -7  -5   7    0.63    0.84
  -7  -5   7    0.88    0.81
  -7  -5   6   75.77    3.10
  -7  -5   6   81.16    3.43
  -7  -5   6   79.23    3.13
  -7  -5   5   36.28    2.21
  -7  -5   5   35.47    2.46
  -7  -5   5   37.52    2.25
  -7  -5   4  372.06    7.38
  -7  -5   4  364.77    8.40
  -7  -5   4  372.25    6.90
  -7  -5   3   21.70    1.44
  -7  -5   3   22.31    1.44
  -7  -5   3   22.49    1.59
  -7  -5   3   19.86    1.86
  -7  -5   3   21.34    1.89
  -7  -5   3   24.29    1.19
  -7  -5   2   66.10    2.61
  -7  -5   2   70.44    2.48
  -7  -5   2   64.46    2.66
  -7  -5   2   61.72    2.99
  -7  -5   2   70.75    2.15
  -7  -5   2   60.63    3.13
  -7  -5   2   69.68    2.07
  -7  -5   1   20.25    1.50
  -7  -5   1   20.76    1.59
  -7  -5   1   19.24    1.21
  -7  -5   1   19.75    1.56
  -7  -5   1   20.28    1.13
  -7  -5   1   20.84    1.83
  -7  -5   1   22.54    1.12
  -7  -5   0   47.66    2.24
  -7  -5   0   48.98    2.38
  -7  -5   0   40.98    1.63
  -7  -5   0   44.51    1.67
  -7  -5   0   39.73    2.17
  -7  -5   0   42.32    1.58
  -7  -5  -1    0.26    0.39
  -7  -5  -1    0.51    0.93
  -7  -5  -1    0.97    0.41
  -7  -5  -1    0.70    0.86
  -7  -5  -2    2.50    0.54
  -7  -5  -2    4.42    0.60
  -7  -5  -2    3.27    1.12
  -7  -5  -2    2.00    0.93
  -7  -5  -3    6.25    0.71
  -7  -5  -3    6.51    1.21
  -7  -5  -3    6.36    1.13
  -7  -5  -3    5.78    0.71
  -7  -5  -4  451.63    8.05
  -7  -5  -4  430.29    8.83
  -7  -5  -4  437.27    7.77
  -7  -5  -4  443.56    8.05
  -7  -5  -5  110.59    3.14
  -7  -5  -5  107.35    2.96
  -7  -5  -5  109.64    3.15
  -7  -5  -6    0.50    0.57
  -7  -5  -6    0.19    0.55
  -7  -5  -6    0.55    0.55
  -7  -5  -7  577.18   10.27
  -7  -5  -7  572.22   10.38
  -7  -5  -8  333.49    6.52
  -7  -5  -8  346.39    6.85
  -7  -5  -8  342.00    7.07
  -7  -5  -8  337.88    7.37
  -7  -5  -9    0.96    0.74
  -7  -5  -9    1.05    0.63
  -7  -5  -9    0.52    0.60
  -7  -5  -9    1.03    0.62
  -7  -5 -10    4.28    0.87
  -7  -5 -10    5.68    0.79
  -7  -5 -10    4.60    0.74
  -7  -5 -10    3.95    0.72
  -7  -5 -11   16.40    1.11
  -7  -5 -11   16.52    1.03
  -7  -5 -11   17.44    1.06
  -7  -5 -11   16.36    1.21
  -7  -5 -12   59.40    1.85
  -7  -5 -12   54.39    1.64
  -7  -5 -12   60.56    1.78
  -7  -5 -12   53.71    1.83
  -7  -5 -13    0.67    0.29
  -7  -5 -13    0.62    0.30
  -7  -5 -13    0.78    0.32
   7   6  -8   88.47    2.01
  -7  -6   8   92.56    2.79
  -7  -6   8   86.22    2.67
  -7  -6   8   88.48    2.52
   7   6  -7  115.37    2.69
  -7  -6   7  118.12    3.56
  -7  -6   7  122.20    3.56
  -7  -6   6  165.98    4.65
  -7  -6   6  164.72    4.74
  -7  -6   6  167.90    4.66
  -7  -6   5    1.47    0.92
  -7  -6   5    1.46    0.95
  -7  -6   5    2.16    0.96
  -7  -6   4  135.40    4.42
  -7  -6   3   77.10    2.91
  -7  -6   3   74.37    3.34
  -7  -6   3   78.83    3.46
  -7  -6   2  204.04    5.18
  -7  -6   2  216.33    5.10
  -7  -6   2  217.66    5.42
  -7  -6   2  209.15    6.15
  -7  -6   1    0.70    0.84
  -7  -6   1    1.34    0.62
  -7  -6   1    0.75    1.02
  -7  -6   1    0.68    0.73
  -7  -6   1    0.53    0.44
  -7  -6   1    2.85    1.19
  -7  -6   0   82.55    3.15
  -7  -6   0   86.54    3.32
  -7  -6   0   87.77    2.62
  -7  -6   0   86.71    2.50
  -7  -6   0   82.30    3.52
  -7  -6  -1  736.10   11.92
  -7  -6  -1  733.69   12.01
  -7  -6  -1  739.04   13.17
  -7  -6  -1  697.55   11.79
  -7  -6  -2   28.98    2.26
  -7  -6  -2   28.42    2.08
  -7  -6  -2   26.29    1.24
  -7  -6  -2   26.73    1.34
  -7  -6  -3  227.31    4.87
  -7  -6  -3  238.49    6.59
  -7  -6  -3  228.42    6.28
  -7  -6  -3  224.11    4.60
  -7  -6  -3  226.04    4.87
  -7  -6  -4   52.91    1.99
  -7  -6  -4   54.01    2.88
  -7  -6  -4   51.35    2.67
  -7  -6  -4   51.63    1.86
  -7  -6  -4   49.55    1.97
  -7  -6  -5  165.49    4.06
  -7  -6  -5  156.84    4.50
  -7  -6  -5  161.10    4.70
  -7  -6  -5  162.98    3.86
  -7  -6  -5  159.87    4.04
  -7  -6  -6  704.65   12.24
  -7  -6  -6  713.53   12.03
  -7  -6  -6  706.98   12.28
  -7  -6  -7  258.08    5.79
  -7  -6  -7  261.02    5.69
  -7  -6  -7  256.63    5.80
  -7  -6  -8    2.85    0.81
  -7  -6  -8    2.41    0.80
  -7  -6  -8    2.58    0.80
  -7  -6  -9   78.70    2.55
  -7  -6  -9   83.29    2.70
  -7  -6  -9   77.55    2.75
  -7  -6  -9   84.66    3.05
  -7  -6 -10   50.21    1.93
  -7  -6 -10   52.71    2.04
  -7  -6 -10   55.21    2.37
  -7  -6 -11    4.23    0.77
  -7  -6 -11    4.24    0.73
  -7  -6 -11    3.50    0.66
  -7  -6 -11    4.20    0.66
  -7  -6 -11    4.09    0.65
  -7  -6 -12   69.71    2.08
  -7  -6 -12   71.96    1.98
  -7  -6 -12   65.42    2.11
  -7  -6 -13    0.74    0.31
  -7  -6 -13    0.86    0.33
  -7  -7   8  194.46    4.02
   7   7  -7   14.91    0.77
  -7  -7   7   14.92    1.16
  -7  -7   6   56.46    2.39
  -7  -7   6   55.60    2.42
  -7  -7   5   26.49    1.80
  -7  -7   5   29.16    1.92
  -7  -7   4   35.96    2.14
  -7  -7   3   20.33    1.52
  -7  -7   3   20.64    1.79
  -7  -7   3   22.46    1.90
  -7  -7   3   20.98    1.23
  -7  -7   2  124.08    3.96
  -7  -7   2  116.53    4.30
  -7  -7   2  130.78    4.65
  -7  -7   2  127.55    3.12
  -7  -7   1  180.44    4.97
  -7  -7   1  186.98    5.16
  -7  -7   1  197.66    4.68
  -7  -7   1  185.62    3.99
  -7  -7   1  171.60    5.72
  -7  -7   1  183.58    4.01
  -7  -7   0    0.95    0.48
  -7  -7   0    1.20    1.02
  -7  -7   0    1.80    0.58
  -7  -7   0    1.58    0.85
  -7  -7   0    1.14    0.47
  -7  -7   0    0.80    1.13
  -7  -7  -1  156.61    4.87
  -7  -7  -1  144.94    4.51
  -7  -7  -1  148.38    3.67
  -7  -7  -1  154.34    3.65
  -7  -7  -1  143.31    4.73
  -7  -7  -1  149.31    3.55
  -7  -7  -2  456.90   10.08
  -7  -7  -2  460.98    8.28
  -7  -7  -2  472.19    8.32
  -7  -7  -3  144.60    5.04
  -7  -7  -3  150.74    3.62
  -7  -7  -3  154.17    3.56
  -7  -7  -3  151.01    3.72
  -7  -7  -4  296.57    6.00
  -7  -7  -4  291.68    7.72
  -7  -7  -4  283.40    5.72
  -7  -7  -4  285.65    5.94
  -7  -7  -5   10.64    0.99
  -7  -7  -5   14.88    1.80
  -7  -7  -5   13.70    1.58
  -7  -7  -5   11.67    0.97
  -7  -7  -5   10.83    1.01
  -7  -7  -6   34.02    2.13
  -7  -7  -6   34.27    1.63
  -7  -7  -7   28.46    1.58
  -7  -7  -8  302.67    6.64
  -7  -7  -8  323.79    6.66
  -7  -7  -9   22.01    1.52
  -7  -7 -10   67.80    2.51
  -7  -7 -10   68.68    2.42
  -7  -7 -11   25.53    1.39
  -7  -7 -11   27.46    1.34
  -7  -7 -12   18.99    1.02
  -7  -7 -12   19.61    0.99
  -7  -7 -13   -0.01    0.31
  -7  -7 -13    0.04    0.28
  -7  -7 -13    0.28    0.29
   7   8  -6   61.21    1.50
  -7  -8   6   64.24    2.28
  -7  -8   5    2.79    0.84
  -7  -8   5    2.86    0.89
  -7  -8   4   28.23    1.81
  -7  -8   3    9.95    1.29
  -7  -8   3   10.41    1.44
  -7  -8   2    4.09    1.05
  -7  -8   2    4.33    1.13
  -7  -8   2    4.65    1.29
  -7  -8   2    5.08    0.71
  -7  -8   1   80.94    3.29
  -7  -8   1   75.02    3.32
  -7  -8   1   87.09    2.42
  -7  -8   0  332.69    7.60
  -7  -8   0  325.75    6.00
  -7  -8   0  312.62    6.01
  -7  -8  -1  196.24    5.64
  -7  -8  -1  201.90    4.30
  -7  -8  -1  196.35    4.23
  -7  -8  -2   36.96    1.67
  -7  -8  -2   37.83    1.64
  -7  -8  -2   37.08    1.51
  -7  -8  -2   37.09    1.58
  -7  -8  -3   72.87    3.76
  -7  -8  -3   65.39    3.30
  -7  -8  -3   71.43    2.37
  -7  -8  -3   72.49    2.23
  -7  -8  -3   71.22    2.32
  -7  -8  -4   14.27    2.19
  -7  -8  -4   12.15    1.74
  -7  -8  -4   13.31    0.98
  -7  -8  -4   14.52    1.07
  -7  -8  -5  294.48    5.85
  -7  -8  -5  310.16    6.08
  -7  -8  -5  313.01    6.26
  -7  -8  -6  383.04    7.56
  -7  -8  -6  385.78    7.40
  -7  -8  -6  402.49    7.64
  -7  -8  -7  409.78    7.94
  -7  -8  -7  420.72    7.86
  -7  -8  -7  411.21    7.96
  -7  -8  -8   15.33    1.23
  -7  -8  -8   16.78    1.28
  -7  -8  -8   17.51    1.31
  -7  -8  -9   33.67    1.76
  -7  -8  -9   34.52    1.81
  -7  -8 -10    1.98    0.68
  -7  -8 -10    1.85    0.64
  -7  -8 -10    1.25    0.61
  -7  -8 -11  109.06    2.94
  -7  -8 -11  103.51    3.00
  -7  -8 -12   15.63    0.88
  -7  -8 -12   16.75    0.88
  -7  -8 -12   13.93    0.92
  -7  -8 -13    0.37    0.29
  -7  -8 -13    0.66    0.27
  -7  -8 -13    0.63    0.25
  -7  -9   5   23.63    1.30
  -7  -9   5   23.84    1.40
  -7  -9   4    1.30    0.72
  -7  -9   3   81.05    2.93
  -7  -9   3   87.33    3.19
  -7  -9   2  251.67    6.08
  -7  -9   2  258.52    6.44
  -7  -9   1   69.56    2.90
  -7  -9   1   72.89    2.54
  -7  -9   1   66.39    2.88
  -7  -9   1   72.88    3.29
  -7  -9   1   71.47    2.10
  -7  -9   0  340.37    7.78
  -7  -9   0  345.18    6.27
  -7  -9  -1    4.54    0.59
  -7  -9  -1    5.46    0.65
  -7  -9  -1    4.29    0.62
  -7  -9  -2  946.05   17.35
  -7  -9  -2  964.12   15.23
  -7  -9  -2  958.04   15.21
  -7  -9  -2  981.54   15.26
  -7  -9  -3   74.73    2.23
  -7  -9  -3   79.11    2.44
  -7  -9  -3   78.88    2.37
  -7  -9  -3   81.98    2.43
  -7  -9  -4  161.31    3.70
  -7  -9  -4  164.07    3.81
  -7  -9  -4  169.60    3.88
  -7  -9  -5  230.80    7.16
  -7  -9  -5  220.88    4.73
  -7  -9  -5  230.55    4.88
  -7  -9  -5  236.67    4.98
  -7  -9  -6    3.35    0.68
  -7  -9  -6    3.46    0.66
  -7  -9  -6    3.54    1.36
  -7  -9  -6    3.13    0.60
  -7  -9  -7   10.04    1.37
  -7  -9  -7   11.00    0.92
  -7  -9  -7   11.95    1.03
  -7  -9  -7   12.33    1.03
  -7  -9  -8    2.75    0.67
  -7  -9  -8    3.09    0.72
  -7  -9  -8    3.51    0.71
  -7  -9  -9   67.69    2.39
  -7  -9  -9   62.12    2.28
  -7  -9 -10   48.37    1.91
  -7  -9 -10   47.57    1.89
  -7  -9 -10   47.11    1.91
  -7  -9 -11   18.07    1.05
  -7  -9 -11   18.14    1.03
  -7  -9 -11   15.28    1.03
  -7  -9 -12   37.83    1.24
  -7  -9 -12   32.64    1.26
  -7 -10   4  163.49    3.57
  -7 -10   3   55.16    2.03
  -7 -10   3   58.86    2.26
  -7 -10   2  102.57    3.09
  -7 -10   2  104.36    3.35
  -7 -10   1   11.23    1.17
  -7 -10   1   13.28    1.08
  -7 -10   1   11.09    1.35
  -7 -10   0   78.08    3.03
  -7 -10   0   79.85    2.63
  -7 -10   0   79.85    3.31
  -7 -10   0   84.45    2.21
  -7 -10  -1    7.23    1.27
   7  10   1    6.54    0.73
  -7 -10  -1    7.50    1.29
  -7 -10  -1    7.37    0.67
  -7 -10  -2   93.93    3.73
  -7 -10  -2  103.50    2.53
  -7 -10  -3  221.41    4.55
  -7 -10  -3  226.19    4.56
  -7 -10  -3  231.97    4.74
  -7 -10  -3  229.54    4.51
  -7 -10  -4    1.17    0.50
  -7 -10  -4    2.07    0.59
  -7 -10  -4    1.17    1.31
  -7 -10  -4    1.36    0.51
  -7 -10  -4    1.66    0.51
  -7 -10  -5  356.44    6.60
  -7 -10  -5  358.98    6.69
  -7 -10  -5  362.39    6.55
  -7 -10  -6  181.93    5.71
  -7 -10  -6  189.04    4.13
  -7 -10  -6  187.76    4.18
  -7 -10  -6  191.34    4.11
  -7 -10  -7   23.16    1.83
  -7 -10  -7   24.83    1.28
  -7 -10  -7   27.55    1.38
  -7 -10  -7   27.11    1.34
  -7 -10  -8  130.42    3.26
  -7 -10  -8  135.92    3.33
  -7 -10  -9   16.31    1.06
  -7 -10  -9   14.78    1.08
  -7 -10  -9   15.85    1.06
  -7 -10 -10    4.79    0.65
  -7 -10 -10    4.79    0.68
  -7 -10 -10    4.36    0.61
  -7 -10 -11    4.76    0.59
  -7 -10 -11    5.13    0.58
  -7 -10 -11    4.63    0.57
  -7 -10 -12   82.05    1.91
  -7 -10 -12   89.45    1.88
  -7 -11   2   49.30    1.86
  -7 -11   1   94.99    2.95
  -7 -11   0  121.12    3.40
  -7 -11   0  128.36    3.73
  -7 -11  -1  280.92    6.23
  -7 -11  -1  293.88    5.67
  -7 -11  -2  189.88    5.10
   7  11   2  193.19    4.00
  -7 -11  -3    7.65    1.35
  -7 -11  -4  134.30    3.11
  -7 -11  -4  138.44    3.22
  -7 -11  -5  304.21    5.63
  -7 -11  -5  312.63    5.75
  -7 -11  -6    8.32    1.51
  -7 -11  -6    9.90    0.79
  -7 -11  -6    9.01    0.75
  -7 -11  -6   10.29    0.85
  -7 -11  -6    9.27    0.70
  -7 -11  -7  102.42    2.60
  -7 -11  -7  100.41    2.66
  -7 -11  -7   97.22    2.38
  -7 -11  -8   97.70    2.51
  -7 -11  -8   93.75    2.32
  -7 -11  -9    2.17    0.43
  -7 -11  -9    1.95    0.54
  -7 -11  -9    2.12    0.51
  -7 -11 -10    1.51    0.47
  -7 -11 -10    1.58    0.46
  -7 -11 -11   13.42    0.74
  -7 -11 -11   13.51    0.72
  -7 -12  -1   70.90    2.16
  -7 -12  -2  170.69    4.16
   7  12   2  173.31    3.41
  -7 -12  -3  199.89    4.90
   7  12   3  202.27    3.95
  -7 -12  -4   12.77    1.40
   7  12   4   11.03    0.80
  -7 -12  -5   18.05    1.63
  -7 -12  -6   28.17    1.12
  -7 -12  -6   29.59    1.22
  -7 -12  -7   67.05    1.82
  -7 -12  -7   68.72    1.93
  -7 -12  -8   12.15    1.01
  -7 -12  -8   14.66    0.81
  -7 -12  -9   10.44    0.68
  -7 -12  -9    8.94    0.69
  -7 -12 -10   56.42    1.48
  -7 -12 -10   53.07    1.49
  -7 -13  -4   33.48    1.52
   7  13   4   30.86    1.04
   7  13   5   47.96    1.38
  -7 -13  -6   75.90    2.51
   7  13   6   83.62    1.97
  -7 -13  -7   89.10    2.52
   7  13   7  102.08    2.23
  -8   6   7    5.65    0.59
  -8   6   6    0.60    0.47
  -8   6   6    0.91    0.43
  -8   6   5   16.96    1.01
  -8   6   5   18.00    0.98
  -8   6   4    0.18    0.52
  -8   6   4    0.64    0.42
  -8   6   3   47.76    1.61
  -8   6   3   45.58    1.42
  -8   6   2  273.82    5.03
  -8   6   2  277.09    4.83
  -8   6   1   57.42    1.66
  -8   6   1   57.07    1.55
  -8   6   0   51.48    1.43
  -8   6  -1   18.82    0.84
  -8   5   8   33.28    1.40
  -8   5   7    0.32    0.53
  -8   5   7    0.29    0.51
  -8   5   6   18.03    1.15
  -8   5   6   20.10    1.22
  -8   5   5   23.19    1.36
  -8   5   5   24.90    1.32
  -8   5   4  133.86    3.46
  -8   5   4  133.20    3.22
  -8   5   4  138.30    3.35
  -8   5   3    8.91    0.94
  -8   5   3    8.98    0.90
  -8   5   3    9.16    0.84
  -8   5   2   37.81    1.58
  -8   5   2   38.09    1.62
  -8   5   2   37.32    1.53
  -8   5   1    2.75    0.63
  -8   5   1    2.47    0.56
  -8   5   0   23.37    1.17
  -8   5   0   24.11    1.14
  -8   5  -1   19.70    1.14
  -8   5  -1   20.43    1.05
  -8   5  -2   26.33    1.14
  -8   5  -3    6.97    0.62
  -8   5  -3    6.82    0.65
  -8   4  10    1.26    0.43
  -8   4   9   96.74    2.77
  -8   4   9   94.10    2.44
  -8   4   8   74.60    2.66
  -8   4   8   73.05    2.42
  -8   4   7   33.15    1.82
  -8   4   7   31.16    1.67
  -8   4   6  127.78    3.74
  -8   4   6  125.44    3.57
  -8   4   5   52.30    2.16
  -8   4   5   54.06    1.91
  -8   4   5   55.04    2.18
  -8   4   4   72.74    2.55
  -8   4   4   73.46    2.56
  -8   4   4   76.36    2.35
  -8   4   4   76.00    2.53
  -8   4   3    8.46    1.00
  -8   4   3    9.81    1.01
  -8   4   3    9.49    0.92
  -8   4   3    9.69    0.93
  -8   4   2   49.64    1.97
  -8   4   2   48.25    1.86
  -8   4   2   48.93    1.90
  -8   4   1    7.33    0.86
  -8   4   1    7.79    0.90
  -8   4   1    7.63    0.83
  -8   4   0   26.43    1.35
  -8   4   0   28.34    1.50
  -8   4   0   27.08    1.32
  -8   4  -1   16.27    1.09
  -8   4  -1   16.16    1.21
  -8   4  -1   17.34    1.07
  -8   4  -2   23.20    1.22
  -8   4  -2   21.91    1.27
  -8   4  -2   23.24    1.21
  -8   4  -3    0.76    0.57
  -8   4  -4  101.55    2.51
  -8   4  -4  112.64    2.61
  -8   4  -5   44.36    1.32
  -8   4  -5   43.47    1.35
  -8   3  10   22.79    1.16
  -8   3   9   56.16    2.22
  -8   3   8   79.43    3.06
  -8   3   8   84.77    2.79
  -8   3   7    8.71    0.83
  -8   3   7    6.11    1.09
  -8   3   7    8.91    0.98
  -8   3   7    6.06    1.00
  -8   3   6  176.64    3.91
  -8   3   6  154.22    3.71
  -8   3   6  142.56    4.41
  -8   3   6  165.42    4.31
  -8   3   6  138.74    4.15
  -8   3   5   98.91    2.93
  -8   3   5  108.39    3.60
  -8   3   5  105.19    3.38
  -8   3   5  106.71    3.33
  -8   3   4    1.11    0.73
  -8   3   4    1.04    0.71
  -8   3   4    1.20    0.70
  -8   3   4    1.19    0.63
  -8   3   3   26.76    1.57
  -8   3   3   26.03    1.49
  -8   3   3   26.30    1.45
  -8   3   3   25.11    1.44
  -8   3   2   38.42    1.83
  -8   3   2   40.42    1.79
  -8   3   2   37.95    1.70
  -8   3   2   38.41    1.73
  -8   3   1  154.43    3.81
  -8   3   1  158.34    3.84
  -8   3   1  160.52    3.84
  -8   3   1  158.50    3.84
  -8   3   0    1.87    0.59
  -8   3   0    2.08    0.66
  -8   3  -1    1.24    0.72
  -8   3  -1    1.05    0.63
  -8   3  -2   20.65    1.24
  -8   3  -2   18.38    1.28
  -8   3  -2   19.47    1.35
  -8   3  -3   23.07    1.31
  -8   3  -3   23.18    1.32
  -8   3  -4    7.26    0.87
  -8   3  -4    7.65    0.87
  -8   3  -5   11.45    0.92
  -8   3  -6   27.83    1.13
  -8   3  -6   28.13    1.15
  -8   2  10   26.16    1.27
  -8   2   9  108.91    3.35
  -8   2   9  113.74    2.76
  -8   2   8   64.77    1.94
  -8   2   8   59.56    2.60
  -8   2   8   66.95    2.26
  -8   2   7   -0.06    0.48
  -8   2   7   -0.05    0.82
  -8   2   7    0.26    0.69
  -8   2   7    0.37    0.59
  -8   2   6  245.82    5.02
  -8   2   6  237.67    5.64
  -8   2   5 1056.84   17.97
  -8   2   5 1017.18   17.69
  -8   2   5 1019.98   17.37
  -8   2   4    1.15    0.76
  -8   2   4    0.98    0.65
  -8   2   3  298.83    6.28
  -8   2   3  290.47    6.56
  -8   2   3  298.18    6.47
  -8   2   3  282.96    5.99
  -8   2   2  125.98    3.60
  -8   2   2  125.62    3.33
  -8   2   2  124.72    3.41
  -8   2   2  128.05    3.39
  -8   2   1  276.94    5.83
  -8   2   1  289.31    5.74
  -8   2   1  274.53    5.77
  -8   2   1  272.97    5.66
  -8   2   0  365.07    6.89
  -8   2   0  372.73    6.97
  -8   2   0  368.46    6.97
  -8   2  -1    0.06    0.66
  -8   2  -1    1.09    0.63
  -8   2  -2   55.21    2.05
  -8   2  -2   53.77    2.17
  -8   2  -2   54.77    2.07
  -8   2  -2   56.29    2.04
  -8   2  -3   29.55    1.54
  -8   2  -3   29.84    1.59
  -8   2  -3   29.25    1.55
  -8   2  -3   28.54    1.47
  -8   2  -4  276.96    5.63
  -8   2  -4  275.95    5.57
  -8   2  -5  113.57    3.02
  -8   2  -6    3.96    0.74
  -8   2  -7   73.35    1.94
  -8   2  -7   73.86    1.91
  -8   2  -8    9.23    0.60
  -8   2  -8    8.10    0.54
  -8   1  10   23.65    1.17
  -8   1   9    5.35    0.87
  -8   1   9    6.04    0.94
  -8   1   9    6.04    0.69
  -8   1   8    8.24    1.23
  -8   1   8   10.26    1.23
  -8   1   8   11.97    1.03
  -8   1   7    3.36    0.65
  -8   1   7    2.31    1.02
  -8   1   7    3.24    0.93
  -8   1   7    3.18    0.78
  -8   1   6    5.36    0.75
  -8   1   6    4.11    1.07
  -8   1   6    6.00    1.06
  -8   1   6    5.51    0.99
  -8   1   5   39.42    1.75
  -8   1   5   39.91    2.27
  -8   1   5   36.58    2.08
  -8   1   5   36.99    2.09
  -8   1   4  122.56    3.40
  -8   1   4  110.47    3.67
  -8   1   4  116.45    3.69
  -8   1   3   42.88    2.11
  -8   1   3   46.88    2.21
  -8   1   2  591.20   10.66
  -8   1   2  601.29   10.84
  -8   1   2  590.38   10.83
  -8   1   1    7.24    0.95
  -8   1   1    7.11    0.95
  -8   1   0   10.80    1.01
  -8   1   0   10.95    0.95
  -8   1   0   10.61    1.08
  -8   1   0   10.88    1.06
  -8   1  -1   63.06    2.09
  -8   1  -1   62.48    2.14
  -8   1  -1   66.47    2.29
  -8   1  -2    2.54    0.72
  -8   1  -2    3.00    0.74
  -8   1  -2    2.81    0.73
  -8   1  -3    1.19    0.65
  -8   1  -3    1.53    0.67
  -8   1  -3    1.25    0.67
  -8   1  -3    0.86    0.65
  -8   1  -4   62.19    2.29
  -8   1  -4   63.73    2.20
  -8   1  -4   64.35    2.23
  -8   1  -5   40.16    1.82
  -8   1  -5   38.24    1.77
  -8   1  -6   27.13    1.47
  -8   1  -6   30.15    1.51
  -8   1  -6   29.84    1.45
  -8   1  -7   55.00    1.85
  -8   1  -7   53.52    1.77
  -8   1  -8  202.22    3.82
  -8   1  -8  192.75    3.90
  -8   1  -9   39.79    1.18
   8   0 -10    1.17    0.40
  -8   0  10    0.86    0.56
   8   0  -9   12.54    0.77
  -8   0   9   12.68    1.21
  -8   0   9   13.03    0.94
   8   0  -8    4.36    0.60
  -8   0   8    5.38    1.01
  -8   0   8    5.44    1.05
  -8   0   8    5.95    0.83
  -8   0   7  227.31    4.52
  -8   0   7  201.07    5.64
  -8   0   7  186.36    5.67
  -8   0   7  228.72    5.38
  -8   0   6  267.43    5.29
  -8   0   6  245.43    6.41
  -8   0   6  234.33    6.40
  -8   0   6  264.15    6.27
  -8   0   5  289.41    5.79
  -8   0   5  282.63    6.69
  -8   0   5  267.95    6.66
  -8   0   5  271.95    6.67
  -8   0   4   12.31    1.08
  -8   0   4   13.26    1.28
  -8   0   4   11.93    1.24
  -8   0   3  147.82    3.97
  -8   0   3  148.60    4.07
  -8   0   3  150.12    4.31
   8   0  -3  154.23    3.80
  -8   0   2  173.95    4.33
  -8   0   2  159.48    4.22
  -8   0   2  165.97    4.39
   8   0  -2  165.99    3.81
  -8   0   1  866.79   14.72
  -8   0   1  897.38   14.84
   8   0  -1  882.98   13.98
  -8   0   1  895.77   14.89
  -8   0   0  591.89   10.46
  -8   0   0  602.03   10.67
  -8   0  -1    2.90    0.65
  -8   0  -1    1.95    0.72
  -8   0  -1    3.54    0.64
  -8   0  -1    2.68    0.66
  -8   0  -2   54.89    1.98
  -8   0  -2   58.06    2.09
  -8   0  -3   23.18    1.36
  -8   0  -3   25.62    1.36
  -8   0  -3   24.60    1.35
  -8   0  -4   97.82    2.94
  -8   0  -4   98.31    2.71
  -8   0  -4   97.88    2.84
  -8   0  -5  169.25    4.13
  -8   0  -5  162.48    3.82
  -8   0  -5  167.27    4.05
  -8   0  -6   84.11    2.79
  -8   0  -6   92.84    2.79
  -8   0  -6   90.20    2.63
  -8   0  -7   77.06    2.49
  -8   0  -7   84.94    2.53
  -8   0  -7   81.36    2.36
  -8   0  -8   27.82    1.30
  -8   0  -8   26.80    1.24
  -8   0  -8   26.23    1.20
  -8   0  -8   26.20    1.27
  -8   0  -9  109.74    2.46
  -8   0  -9  103.20    2.43
   8   1 -10    3.85    0.50
  -8  -1  10    3.51    0.67
   8   1  -9   39.37    1.37
  -8  -1   9   39.46    1.98
  -8  -1   9   40.27    1.59
   8   1  -8  150.76    3.23
  -8  -1   8  146.75    4.52
  -8  -1   8  151.93    3.93
   8   1  -7  327.99    5.82
  -8  -1   7  336.48    7.05
   8   1  -6    2.34    0.59
  -8  -1   6    1.27    0.58
  -8  -1   6    1.56    0.97
  -8  -1   6    2.29    0.92
  -8  -1   5  149.18    3.70
  -8  -1   5  137.23    4.58
  -8  -1   5  143.40    4.54
  -8  -1   4  120.51    3.33
  -8  -1   4  116.82    3.85
  -8  -1   3   93.95    2.95
  -8  -1   3   97.14    3.19
  -8  -1   3   88.07    3.28
   8   1  -2   26.44    1.36
  -8  -1   2   23.15    1.59
   8   1  -1  290.94    5.55
  -8  -1   1  284.91    6.22
  -8  -1   1  281.08    5.91
  -8  -1   1  288.10    6.22
  -8  -1   0   28.02    1.63
  -8  -1   0   31.40    1.64
  -8  -1  -1  490.11    9.00
  -8  -1  -1  518.35    9.15
  -8  -1  -2   13.47    1.02
  -8  -1  -3    4.21    0.74
  -8  -1  -3    3.38    0.69
  -8  -1  -3    3.94    0.70
  -8  -1  -4   41.90    1.80
  -8  -1  -4   43.76    1.68
  -8  -1  -4   44.25    1.76
  -8  -1  -5   44.31    1.98
  -8  -1  -5   45.91    1.95
  -8  -1  -5   48.34    1.94
  -8  -1  -6   34.83    1.79
  -8  -1  -6   36.02    1.73
  -8  -1  -7    8.82    1.00
  -8  -1  -7    8.43    0.96
  -8  -1  -8  843.33   13.61
  -8  -1  -8  826.88   13.83
  -8  -1  -9    1.83    0.52
  -8  -1  -9    2.09    0.60
  -8  -1  -9    2.12    0.54
  -8  -1 -10   67.85    1.82
  -8  -1 -10   62.76    1.72
   8   2 -10  104.00    2.23
  -8  -2  10  105.69    2.81
   8   2  -9   92.90    2.25
  -8  -2   9   91.89    3.00
  -8  -2   9   92.97    2.56
   8   2  -8   30.25    1.29
  -8  -2   8   30.74    1.95
  -8  -2   8   29.63    1.61
   8   2  -7    4.09    0.73
  -8  -2   7    3.73    1.13
  -8  -2   7    2.73    0.88
  -8  -2   6   16.80    1.11
  -8  -2   6   16.69    1.80
  -8  -2   6   18.39    1.60
  -8  -2   5   22.08    1.35
  -8  -2   5   21.17    1.90
  -8  -2   5   23.50    1.86
  -8  -2   4   55.22    2.14
  -8  -2   4   55.40    2.68
  -8  -2   3  217.76    4.75
  -8  -2   3  195.03    5.30
  -8  -2   2   11.05    1.15
  -8  -2   2    0.38    0.74
  -8  -2   2    9.85    1.09
  -8  -2   1  910.17   15.40
   8   2  -1  910.22   14.53
  -8  -2   1  892.56   15.30
  -8  -2   1  921.32   15.41
  -8  -2   0   39.83    2.00
   8   2   0   37.70    1.48
  -8  -2   0   35.61    1.41
  -8  -2   0   34.91    1.77
  -8  -2  -1  503.57    9.40
  -8  -2  -1  514.85    9.41
  -8  -2  -2   52.21    2.04
  -8  -2  -2   54.96    2.08
  -8  -2  -3    1.07    0.58
  -8  -2  -4  117.78    3.12
  -8  -2  -4  123.62    3.04
  -8  -2  -5   32.89    1.57
  -8  -2  -5   34.14    1.58
  -8  -2  -5   33.03    1.66
  -8  -2  -6  174.54    4.06
  -8  -2  -6  169.35    4.33
  -8  -2  -7  289.46    5.78
  -8  -2  -7  285.04    5.74
  -8  -2  -7  291.10    6.13
  -8  -2  -8   98.01    2.75
  -8  -2  -8   94.75    2.68
  -8  -2  -8   99.21    2.90
  -8  -2  -9  108.39    2.82
  -8  -2  -9  106.70    2.71
  -8  -2  -9  102.81    2.79
  -8  -2 -10  163.85    3.47
  -8  -2 -10  162.06    3.37
  -8  -2 -11   75.15    1.84
  -8  -2 -11   70.40    1.75
   8   3 -10   29.28    0.96
  -8  -3  10   31.15    1.30
   8   3  -9    1.38    0.49
  -8  -3   9    2.01    0.69
  -8  -3   9    1.47    0.51
   8   3  -8  241.66    4.60
  -8  -3   8  249.31    5.92
  -8  -3   8  242.86    5.33
   8   3  -7  207.65    4.24
  -8  -3   7  207.10    5.79
  -8  -3   7  201.74    5.09
  -8  -3   6   20.16    1.78
  -8  -3   6   17.91    1.87
  -8  -3   6   19.65    1.63
  -8  -3   5  960.41   15.06
  -8  -3   5  903.98   16.77
  -8  -3   5  933.71   16.51
  -8  -3   4  688.34   11.53
  -8  -3   4  617.19   12.84
  -8  -3   4  637.43   12.80
  -8  -3   4  665.94   10.80
  -8  -3   3   62.77    2.47
  -8  -3   3   57.83    2.84
  -8  -3   3   66.25    3.07
  -8  -3   3   65.92    1.94
  -8  -3   3   65.99    2.44
  -8  -3   2  228.25    5.36
  -8  -3   2  215.31    5.78
  -8  -3   2  225.52    4.38
  -8  -3   2  231.63    5.35
  -8  -3   1  141.78    3.34
  -8  -3   1  133.63    4.05
  -8  -3   1  140.07    3.09
  -8  -3   0  710.06   12.87
  -8  -3   0  723.33   13.04
   8   3   0  749.56   11.95
  -8  -3   0  713.99   11.79
  -8  -3   0  737.20   12.65
  -8  -3  -1  150.66    4.13
  -8  -3  -1  148.70    4.23
  -8  -3  -1  145.34    3.39
  -8  -3  -2   28.95    1.61
  -8  -3  -2   27.93    1.65
  -8  -3  -2   27.68    1.30
  -8  -3  -3   68.24    2.39
  -8  -3  -3   65.84    2.11
  -8  -3  -3   71.41    2.38
  -8  -3  -5  231.47    5.11
  -8  -3  -5  227.14    4.98
  -8  -3  -5  243.08    5.16
  -8  -3  -6   10.22    0.96
  -8  -3  -6   11.81    1.04
  -8  -3  -6   12.89    1.14
  -8  -3  -7  255.97    5.28
  -8  -3  -7  265.85    5.44
  -8  -3  -7  266.54    5.79
  -8  -3  -8  527.07    9.15
  -8  -3  -8  526.86    9.19
  -8  -3  -8  538.58    9.59
  -8  -3  -9    5.95    0.80
  -8  -3  -9    4.80    0.73
  -8  -3  -9    5.27    0.76
  -8  -3 -10  204.97    4.16
  -8  -3 -10  205.12    4.12
  -8  -3 -11  176.57    3.46
  -8  -3 -11  167.41    3.36
  -8  -4   9   53.72    1.92
  -8  -4   8  108.40    3.32
  -8  -4   8  108.59    3.07
   8   4  -7   23.73    1.21
  -8  -4   7   23.74    1.68
  -8  -4   7   24.27    1.79
  -8  -4   7   25.15    1.60
  -8  -4   6   12.19    1.40
  -8  -4   6   10.72    1.48
  -8  -4   6   11.31    1.26
  -8  -4   5   53.93    2.01
  -8  -4   5   54.93    2.84
  -8  -4   5   51.12    2.96
  -8  -4   5   53.70    2.68
  -8  -4   4  396.30    7.52
  -8  -4   4  361.73    8.80
  -8  -4   4  356.08    8.54
  -8  -4   4  390.65    6.95
  -8  -4   3   47.85    1.92
  -8  -4   3   48.92    2.17
  -8  -4   3   43.85    2.61
  -8  -4   3   48.66    1.68
  -8  -4   2  468.55    8.89
  -8  -4   2  483.36    9.09
  -8  -4   2  457.94    9.60
  -8  -4   2  442.25    9.86
  -8  -4   2  461.05    7.94
  -8  -4   1  326.64    7.06
  -8  -4   1  344.23    7.33
  -8  -4   1  350.77    6.36
  -8  -4   1  321.49    7.48
  -8  -4   1  327.79    6.07
  -8  -4   0   43.20    2.19
  -8  -4   0   45.57    2.40
  -8  -4   0   46.11    1.73
  -8  -4   0   43.82    2.15
  -8  -4   0   42.71    1.60
  -8  -4  -1   10.24    1.24
  -8  -4  -1    9.17    1.34
  -8  -4  -1   10.18    0.86
  -8  -4  -1   11.01    0.83
  -8  -4  -2    1.25    0.47
  -8  -4  -2    0.69    0.92
  -8  -4  -2    0.95    0.73
  -8  -4  -2    1.19    0.51
  -8  -4  -3   48.82    2.14
  -8  -4  -3   54.16    1.94
  -8  -4  -3   47.97    2.22
  -8  -4  -3   48.26    1.82
  -8  -4  -3   50.20    1.86
  -8  -4  -4  125.01    3.29
  -8  -4  -4  116.92    3.17
  -8  -4  -5   69.75    2.43
  -8  -4  -5   68.55    2.32
  -8  -4  -5   65.26    2.29
  -8  -4  -6   41.52    1.90
  -8  -4  -6   38.11    1.75
  -8  -4  -6   41.06    1.86
  -8  -4  -6   37.92    1.79
  -8  -4  -7   22.33    1.27
  -8  -4  -7   22.23    1.35
  -8  -4  -7   24.26    1.51
  -8  -4  -7   20.81    1.41
  -8  -4  -8    2.24    0.70
  -8  -4  -8    3.14    0.77
  -8  -4  -8    3.86    0.72
  -8  -4  -8    2.71    0.68
  -8  -4  -9    6.87    0.83
  -8  -4  -9    6.39    0.79
  -8  -4  -9    7.40    0.86
  -8  -4  -9    5.72    0.88
  -8  -4 -10   37.31    1.68
  -8  -4 -10   38.82    1.54
  -8  -4 -10   37.27    1.50
  -8  -4 -10   39.56    1.57
  -8  -4 -11   31.77    1.33
  -8  -4 -11   33.40    1.31
  -8  -4 -11   32.50    1.25
  -8  -4 -12   44.98    1.32
  -8  -4 -12   48.80    1.38
   8   5  -9    9.16    0.54
   8   5  -8  114.26    2.46
  -8  -5   8  113.55    3.11
  -8  -5   8  121.74    3.04
  -8  -5   7   19.24    1.45
  -8  -5   7   18.83    1.42
  -8  -5   7   18.70    1.38
  -8  -5   6   40.80    2.19
  -8  -5   6   40.69    2.28
  -8  -5   6   40.52    2.13
  -8  -5   5  100.76    3.71
  -8  -5   5   97.44    3.57
  -8  -5   4   22.43    1.42
  -8  -5   4   23.32    1.97
  -8  -5   4   23.71    1.97
  -8  -5   4   20.68    1.19
  -8  -5   3   47.46    2.17
  -8  -5   3   43.47    2.69
  -8  -5   3   45.78    2.77
  -8  -5   3   44.84    1.71
  -8  -5   2  316.01    6.77
  -8  -5   2  311.57    6.39
  -8  -5   2  330.77    6.97
  -8  -5   2  301.05    7.68
  -8  -5   2  299.04    7.92
  -8  -5   2  327.93    5.95
  -8  -5   1   28.65    1.77
  -8  -5   1   31.63    1.96
  -8  -5   1   32.15    2.26
  -8  -5   1   29.84    1.34
  -8  -5   0  825.49   13.32
  -8  -5   0  825.04   14.66
  -8  -5   0  809.50   13.12
  -8  -5  -1  572.46   11.60
  -8  -5  -1  594.33   11.87
  -8  -5  -1  609.82   10.29
  -8  -5  -1  599.59   10.07
  -8  -5  -2   88.35    3.55
  -8  -5  -2   95.54    3.78
  -8  -5  -2   99.00    2.81
  -8  -5  -2  100.46    2.81
  -8  -5  -3    3.30    0.65
  -8  -5  -3    3.26    0.61
  -8  -5  -3    3.85    1.17
  -8  -5  -3    2.95    0.93
  -8  -5  -4   19.08    1.42
  -8  -5  -4   21.75    1.28
  -8  -5  -4   19.81    1.56
  -8  -5  -4   20.92    1.27
  -8  -5  -5  125.80    3.44
  -8  -5  -5  127.33    3.32
  -8  -5  -6   25.47    1.51
  -8  -5  -6   26.01    1.45
  -8  -5  -6   26.17    1.49
  -8  -5  -6   27.58    1.54
  -8  -5  -7  307.49    6.51
  -8  -5  -7  292.22    6.12
  -8  -5  -7  311.39    6.38
  -8  -5  -7  285.10    6.34
  -8  -5  -8    1.37    0.69
  -8  -5  -8    0.74    0.65
  -8  -5  -8    1.23    0.69
  -8  -5  -8    0.69    0.55
  -8  -5  -8    1.13    0.64
  -8  -5  -9   63.86    2.47
  -8  -5  -9   62.31    2.06
  -8  -5  -9   65.03    2.18
  -8  -5  -9   63.23    2.28
  -8  -5 -10  403.24    7.48
  -8  -5 -10  386.36    6.87
  -8  -5 -10  396.95    7.13
  -8  -5 -11   83.26    2.33
  -8  -5 -11   79.67    2.14
  -8  -5 -11   75.48    2.24
  -8  -5 -12    0.35    0.27
  -8  -5 -12    0.57    0.33
  -8  -5 -12    0.34    0.32
   8   6  -8   22.41    0.83
   8   6  -7    1.49    0.49
  -8  -6   7    1.28    0.69
  -8  -6   7    1.15    0.67
  -8  -6   6   33.82    1.89
  -8  -6   6   35.70    1.91
  -8  -6   5    1.79    0.88
  -8  -6   5    2.78    0.98
  -8  -6   4  146.15    4.64
  -8  -6   4  139.10    4.54
  -8  -6   4  137.40    3.43
  -8  -6   3   54.12    2.31
  -8  -6   3   53.28    2.92
  -8  -6   3   57.88    3.02
  -8  -6   3   56.43    1.95
  -8  -6   2   19.16    1.57
  -8  -6   2   16.99    1.79
  -8  -6   2   15.97    1.88
  -8  -6   2   17.68    1.05
  -8  -6   1  117.69    3.89
  -8  -6   1  124.56    3.13
  -8  -6   1  117.41    2.96
  -8  -6   0   32.87    2.04
  -8  -6   0   33.51    2.14
  -8  -6   0   33.27    1.51
  -8  -6   0   30.56    2.22
  -8  -6   0   31.70    1.43
  -8  -6  -1  100.65    3.82
  -8  -6  -1  101.66    3.98
  -8  -6  -1   98.65    2.76
  -8  -6  -2  153.88    5.18
  -8  -6  -2  166.53    5.45
  -8  -6  -2  160.82    3.86
  -8  -6  -3   82.98    3.70
  -8  -6  -3   88.22    3.87
  -8  -6  -3   86.75    2.67
  -8  -6  -4    2.97    0.65
  -8  -6  -4    4.26    0.72
  -8  -6  -4    5.25    1.34
  -8  -6  -4    5.54    1.18
  -8  -6  -4    3.70    0.62
  -8  -6  -5  121.18    3.33
  -8  -6  -5  109.74    3.69
  -8  -6  -5  115.51    3.13
  -8  -6  -5  116.70    3.31
  -8  -6  -6   32.58    1.67
  -8  -6  -6   33.98    1.64
  -8  -6  -6   30.01    1.63
  -8  -6  -7   98.84    3.13
  -8  -6  -7   98.75    3.05
  -8  -6  -7   93.34    3.06
  -8  -6  -8  100.06    3.20
  -8  -6  -8   98.40    3.08
  -8  -6  -8   93.18    3.12
  -8  -6  -9  231.20    5.35
  -8  -6  -9  237.97    5.16
  -8  -6 -10    1.61    0.65
  -8  -6 -10    0.52    0.53
  -8  -6 -10    0.78    0.58
  -8  -6 -10    0.94    0.52
  -8  -6 -11    1.59    0.52
  -8  -6 -11    1.53    0.50
  -8  -6 -11    1.08    0.45
  -8  -6 -12    5.59    0.51
  -8  -6 -12    5.05    0.51
   8   7  -7    5.35    0.47
  -8  -7   7    5.53    0.73
  -8  -7   7    6.10    0.71
   8   7  -6   23.65    1.03
  -8  -7   6   25.82    1.50
  -8  -7   6   25.43    1.51
  -8  -7   5   59.56    2.49
  -8  -7   5   57.85    2.50
  -8  -7   4    2.61    0.96
  -8  -7   4    2.32    1.00
  -8  -7   3  146.05    3.94
  -8  -7   3  148.97    4.74
  -8  -7   3  154.32    4.89
  -8  -7   2  203.19    5.08
  -8  -7   2  194.89    5.97
  -8  -7   1   12.98    1.47
  -8  -7   1   15.10    1.02
  -8  -7   1   12.38    1.78
  -8  -7   0   35.15    2.25
  -8  -7   0   38.72    1.60
  -8  -7   0   33.04    2.48
  -8  -7  -1   23.30    1.30
  -8  -7  -2   38.09    2.76
  -8  -7  -2   38.61    1.75
  -8  -7  -2   34.01    1.58
  -8  -7  -3   17.34    2.21
  -8  -7  -3   17.01    1.21
  -8  -7  -3   17.38    1.16
  -8  -7  -4   29.60    2.62
  -8  -7  -4   32.50    1.45
  -8  -7  -4   29.58    1.54
  -8  -7  -5    0.71    0.55
  -8  -7  -5    0.84    0.50
  -8  -7  -5    1.08    0.59
  -8  -7  -5    0.30    1.03
  -8  -7  -6   68.04    2.44
  -8  -7  -6   68.66    2.34
  -8  -7  -6   68.44    2.48
  -8  -7  -7  607.51   10.81
  -8  -7  -7  616.23   10.70
  -8  -7  -7  594.77   10.77
  -8  -7  -8  587.70   10.48
  -8  -7  -8  590.23   10.36
  -8  -7  -9   62.84    2.38
  -8  -7  -9   66.38    2.36
  -8  -7  -9   66.14    2.50
  -8  -7 -10  127.53    3.23
  -8  -7 -10  116.74    3.34
  -8  -7 -11   14.64    0.98
  -8  -7 -11   15.52    1.02
  -8  -7 -12   20.26    0.90
  -8  -7 -12   20.51    0.87
   8   8  -6   54.04    1.30
  -8  -8   6   55.75    1.87
  -8  -8   6   57.43    1.89
  -8  -8   5    0.73    0.62
  -8  -8   5    0.61    0.68
  -8  -8   4  208.34    5.08
  -8  -8   4  211.11    5.21
  -8  -8   3  133.54    4.10
  -8  -8   3  135.83    4.26
  -8  -8   2    4.03    0.95
  -8  -8   2    5.08    1.10
  -8  -8   2    4.07    1.19
  -8  -8   2    4.03    0.66
  -8  -8   1   18.61    1.94
  -8  -8   1   19.55    1.13
  -8  -8   0   38.14    2.31
  -8  -8   0   39.05    1.56
  -8  -8   0   33.61    2.48
  -8  -8   0   37.89    1.54
  -8  -8  -1    1.50    0.54
  -8  -8  -1    0.95    1.15
  -8  -8  -1    2.13    0.55
  -8  -8  -1    3.89    1.14
  -8  -8  -2   38.02    1.65
  -8  -8  -2   36.45    1.61
  -8  -8  -3   47.12    3.29
  -8  -8  -3   48.41    1.94
  -8  -8  -3   45.09    1.68
  -8  -8  -3   48.31    1.89
  -8  -8  -4    7.33    1.92
  -8  -8  -4    8.82    0.81
  -8  -8  -4    9.26    0.92
  -8  -8  -5    3.99    1.54
  -8  -8  -5    5.01    0.69
  -8  -8  -5    4.45    0.74
  -8  -8  -6   29.42    1.55
  -8  -8  -6   26.37    2.00
  -8  -8  -6   28.76    1.46
  -8  -8  -6   28.59    1.54
  -8  -8  -7    1.03    0.58
  -8  -8  -8    0.94    0.60
  -8  -8  -9  259.57    5.61
  -8  -8  -9  268.90    5.58
  -8  -8 -10   12.80    1.01
  -8  -8 -10   13.57    1.00
  -8  -8 -11  110.58    2.74
  -8  -8 -12   48.91    1.41
  -8  -8 -12   49.14    1.38
  -8  -9   5   22.04    1.15
  -8  -9   4    2.47    0.63
  -8  -9   4    2.59    0.74
  -8  -9   3  121.50    3.46
  -8  -9   3  126.50    3.70
  -8  -9   2   16.42    1.23
  -8  -9   2   17.45    1.41
  -8  -9   2   17.41    1.57
  -8  -9   1   79.36    2.92
  -8  -9   1   84.40    2.27
  -8  -9   0  228.56    5.77
  -8  -9   0  234.25    4.60
  -8  -9  -1   13.76    1.63
  -8  -9  -1   14.12    0.92
  -8  -9  -1   15.10    0.97
  -8  -9  -2   35.31    2.45
  -8  -9  -2   37.15    1.55
  -8  -9  -2   37.91    1.57
  -8  -9  -3   10.15    1.85
  -8  -9  -3   10.13    0.92
  -8  -9  -3    9.09    0.79
  -8  -9  -3    9.28    0.85
  -8  -9  -4   21.25    2.44
  -8  -9  -4   25.37    1.39
  -8  -9  -4   22.62    1.21
  -8  -9  -4   25.05    1.32
  -8  -9  -5   80.76    4.03
  -8  -9  -5   83.33    2.46
  -8  -9  -5   87.04    2.59
  -8  -9  -6    8.78    1.50
  -8  -9  -6    7.65    0.80
  -8  -9  -6    7.77    0.84
  -8  -9  -7  224.28    4.75
  -8  -9  -7  228.74    4.86
  -8  -9  -8   34.55    1.60
  -8  -9  -8   32.37    1.58
  -8  -9  -9   25.48    1.20
  -8  -9  -9   26.95    1.39
  -8  -9  -9   27.17    1.42
  -8  -9 -10   80.05    2.15
  -8  -9 -10   82.67    2.43
  -8  -9 -11   30.87    1.21
  -8  -9 -11   29.58    1.24
  -8  -9 -12   38.50    1.10
  -8  -9 -12   33.86    1.12
  -8 -10   3   13.34    1.05
  -8 -10   2  160.43    4.11
  -8 -10   1    4.35    0.82
  -8 -10   1    4.72    1.01
  -8 -10   0   12.26    1.29
  -8 -10   0   11.68    1.33
  -8 -10   0   13.71    0.84
  -8 -10  -1   25.13    1.81
  -8 -10  -1   29.14    1.22
  -8 -10  -2   17.94    1.72
  -8 -10  -2   18.58    0.96
  -8 -10  -2   18.49    1.00
  -8 -10  -3   52.93    1.74
  -8 -10  -3   50.15    1.71
  -8 -10  -3   51.83    1.72
  -8 -10  -4    2.55    0.54
  -8 -10  -4    2.54    0.54
  -8 -10  -4    1.87    1.43
  -8 -10  -4    2.66    0.55
  -8 -10  -5    3.09    0.58
  -8 -10  -5    2.89    1.47
  -8 -10  -5    2.74    0.59
  -8 -10  -5    3.40    0.60
  -8 -10  -6  130.11    3.17
  -8 -10  -6  137.00    3.21
  -8 -10  -7   26.06    1.74
  -8 -10  -7   28.92    1.24
  -8 -10  -7   29.15    1.37
  -8 -10  -7   29.46    1.34
  -8 -10  -8    0.41    0.43
  -8 -10  -8    0.86    0.52
  -8 -10  -8    0.42    0.39
  -8 -10  -9   64.38    1.88
  -8 -10  -9   65.33    2.07
  -8 -10  -9   65.93    2.05
  -8 -10 -10   43.63    1.39
  -8 -10 -10   42.79    1.52
  -8 -10 -11   24.29    0.96
  -8 -10 -11   21.29    0.91
  -8 -11   1    0.45    0.54
  -8 -11   0   82.74    2.42
  -8 -11   0   78.92    2.54
  -8 -11  -1   46.42    2.06
  -8 -11  -1   53.17    1.46
  -8 -11  -2   16.01    1.42
  -8 -11  -2   17.58    0.84
  -8 -11  -3   70.56    2.96
  -8 -11  -3   71.26    1.82
  -8 -11  -4   27.36    2.05
  -8 -11  -4   30.48    1.22
  -8 -11  -4   29.94    1.11
  -8 -11  -5   24.76    1.08
  -8 -11  -5   25.85    1.16
  -8 -11  -5   24.87    1.03
  -8 -11  -6    0.95    0.37
  -8 -11  -6    1.12    0.45
  -8 -11  -6    0.44    0.98
  -8 -11  -6    1.36    0.41
  -8 -11  -6    1.12    0.42
  -8 -11  -7   15.02    0.82
  -8 -11  -7   13.44    0.87
  -8 -11  -7   15.17    0.93
  -8 -11  -7   14.49    0.82
  -8 -11  -8   58.16    1.65
  -8 -11  -8   54.13    1.77
  -8 -11  -8   57.08    1.67
  -8 -11  -9    0.78    0.34
  -8 -11  -9    0.22    0.40
  -8 -11  -9    0.49    0.34
  -8 -11 -10   18.26    0.78
  -8 -12  -2   53.53    1.94
  -8 -12  -3   42.12    1.91
   8  12   4    6.12    0.57
  -8 -12  -5    4.80    1.08
  -8 -12  -6  259.36    5.71
  -8 -12  -7    0.35    0.37
  -8 -12  -7    0.44    0.67
  -8 -12  -7    0.39    0.28
  -8 -12  -8  140.11    2.91
  -8 -12  -9  107.19    2.31
  -9   5   4   26.89    1.15
  -9   5   3    0.57    0.49
  -9   5   3   -0.33    0.41
  -9   5   2   76.43    2.06
  -9   5   2   77.87    1.88
  -9   5   1   46.50    1.47
  -9   5   1   46.94    1.35
  -9   5   0    4.75    0.53
  -9   5   0    5.12    0.51
  -9   4   6    4.96    0.66
  -9   4   5   32.81    1.26
  -9   4   5   28.61    1.35
  -9   4   4   14.62    0.95
  -9   4   4   14.41    0.98
  -9   4   3   20.05    1.21
  -9   4   3   20.42    1.12
  -9   4   2    0.91    0.58
  -9   4   2    0.63    0.56
  -9   4   1    6.96    0.76
  -9   4   1    7.74    0.83
  -9   4   0  304.06    5.43
  -9   4   0  282.24    5.20
  -9   4  -1  118.86    2.74
  -9   4  -1  119.54    2.67
  -9   4  -2   20.55    0.96
  -9   4  -2   21.00    0.99
  -9   4  -3  126.28    2.55
  -9   3   8    7.83    0.82
  -9   3   7   23.72    1.48
  -9   3   6  240.88    4.58
  -9   3   5  150.16    3.53
  -9   3   5  141.12    3.30
  -9   3   5  138.62    3.53
  -9   3   4   12.80    1.09
  -9   3   4   12.95    0.97
  -9   3   4   11.91    1.00
  -9   3   3    2.06    0.66
  -9   3   3    2.59    0.62
  -9   3   3    2.29    0.61
  -9   3   2   31.93    1.52
  -9   3   2   34.62    1.57
  -9   3   2   36.03    1.51
  -9   3   2   35.99    1.50
  -9   3   1   45.96    1.78
  -9   3   1   48.73    1.75
  -9   3   0    3.56    0.67
  -9   3   0    2.85    0.64
  -9   3  -1   32.32    1.42
  -9   3  -1   33.52    1.39
  -9   3  -2    5.41    0.73
  -9   3  -3  178.60    3.68
  -9   3  -4  201.77    3.81
  -9   3  -4  198.68    3.71
  -9   3  -5    0.80    0.35
  -9   2   9   29.35    1.17
  -9   2   8   14.77    1.12
  -9   2   7   80.32    2.16
  -9   2   7   78.64    2.11
  -9   2   7   85.97    2.53
  -9   2   6  209.80    4.25
  -9   2   6  179.68    4.12
  -9   2   6  186.57    5.00
  -9   2   6  206.16    4.73
  -9   2   5   47.15    1.91
  -9   2   5   50.24    2.35
  -9   2   5   51.70    2.21
  -9   2   4    0.13    0.63
  -9   2   4    0.55    0.62
  -9   2   3    0.50    0.62
  -9   2   3    0.52    0.62
  -9   2   3    0.58    0.59
  -9   2   2   99.16    2.95
  -9   2   2   98.65    2.79
  -9   2   1  144.62    3.59
  -9   2   1  150.80    3.61
  -9   2   0   31.14    1.41
  -9   2   0   34.15    1.52
  -9   2   0   31.41    1.50
  -9   2  -1   45.91    1.78
  -9   2  -1   43.81    1.77
  -9   2  -2   43.95    1.71
  -9   2  -2   43.99    1.77
  -9   2  -2   45.73    1.75
  -9   2  -3  219.44    4.58
  -9   2  -3  236.30    4.67
  -9   2  -4   32.14    1.37
  -9   2  -4   33.03    1.44
  -9   2  -4   33.61    1.34
  -9   2  -5   44.03    1.53
  -9   2  -5   49.23    1.56
  -9   2  -6   45.67    1.33
  -9   2  -6   37.96    1.16
  -9   1   9   29.86    1.08
  -9   1   8   10.05    0.94
  -9   1   8   11.10    0.86
  -9   1   7   22.02    1.12
  -9   1   7   19.62    1.47
  -9   1   7   23.03    1.36
  -9   1   6    0.67    0.52
  -9   1   6    1.26    0.85
  -9   1   6    0.08    0.59
  -9   1   5   41.31    1.71
  -9   1   5   38.01    2.10
  -9   1   4    1.50    0.68
  -9   1   4    1.35    0.73
  -9   1   4    2.59    0.79
  -9   1   3   22.78    1.47
  -9   1   3   22.31    1.52
  -9   1   2    3.67    0.81
  -9   1   2    1.49    0.71
  -9   1   2    1.81    0.65
  -9   1   1    9.42    0.99
  -9   1   1    9.62    0.98
  -9   1   0  154.01    3.72
  -9   1   0  163.31    3.87
  -9   1  -1  797.61   13.25
  -9   1  -1  832.43   13.51
  -9   1  -1  844.75   13.45
  -9   1  -2  511.02    8.73
  -9   1  -2  511.64    8.68
  -9   1  -3   11.25    0.99
  -9   1  -3   11.76    1.02
  -9   1  -3   10.94    0.97
  -9   1  -4  142.47    3.49
  -9   1  -4  159.23    3.62
  -9   1  -5    2.47    0.64
  -9   1  -5    2.61    0.63
  -9   1  -6  216.73    4.16
  -9   1  -6  205.29    3.99
  -9   1  -7    2.73    0.48
  -9   1  -7    2.75    0.41
  -9   0   9   47.05    1.78
  -9   0   9   45.20    1.42
  -9   0   8   51.46    2.22
  -9   0   8   56.19    1.90
  -9   0   7   89.29    2.32
  -9   0   7   88.07    2.79
  -9   0   6   85.84    2.40
  -9   0   6   73.10    2.87
  -9   0   6   74.52    3.08
  -9   0   6   82.04    2.90
  -9   0   5    1.84    0.60
  -9   0   5    1.85    0.81
  -9   0   5    2.42    0.81
  -9   0   4    1.59    0.69
  -9   0   4    0.30    0.69
  -9   0   4    0.36    0.74
  -9   0   3  216.52    5.06
  -9   0   3  194.00    5.06
  -9   0   2  232.56    5.34
  -9   0   2  236.21    5.45
  -9   0   1  260.81    5.75
  -9   0   1  278.52    5.89
  -9   0   0  225.66    5.02
  -9   0   0  227.67    5.01
  -9   0  -1   32.01    1.48
  -9   0  -1   32.47    1.59
  -9   0  -2  274.04    5.54
  -9   0  -2  285.89    5.63
  -9   0  -2  282.07    5.53
  -9   0  -3   56.50    2.06
  -9   0  -3   62.64    2.07
  -9   0  -3   60.33    2.07
  -9   0  -4   32.96    1.55
  -9   0  -4   33.98    1.51
  -9   0  -4   34.84    1.59
  -9   0  -5  104.30    2.81
  -9   0  -5  103.46    2.90
  -9   0  -6    6.17    0.77
  -9   0  -6    5.54    0.66
  -9   0  -7   37.46    1.39
  -9   0  -7   35.93    1.30
  -9   0  -8   76.85    1.88
  -9   0  -8   72.79    1.78
  -9  -1   9   40.25    1.61
  -9  -1   9   38.62    1.31
  -9  -1   8  106.46    3.25
  -9  -1   8  108.25    2.84
  -9  -1   7  107.52    3.73
  -9  -1   7  121.20    3.37
  -9  -1   6   25.81    1.27
  -9  -1   6   22.35    1.78
  -9  -1   6   24.94    1.64
  -9  -1   5    8.74    0.91
  -9  -1   5    8.17    1.20
  -9  -1   4    7.96    0.95
  -9  -1   4    8.29    1.09
  -9  -1   4    6.75    1.13
  -9  -1   3    0.56    0.69
  -9  -1   3    0.17    0.75
  -9  -1   2   14.36    1.28
  -9  -1   2   13.59    1.28
  -9  -1   1   10.87    1.21
  -9  -1   1   11.24    1.10
  -9  -1   0  214.67    5.09
  -9  -1   0  236.03    5.17
  -9  -1  -1  571.65    9.97
  -9  -1  -2   11.25    0.91
  -9  -1  -2   11.27    1.02
  -9  -1  -2    9.16    0.87
  -9  -1  -3   12.11    0.99
  -9  -1  -3   12.36    0.99
  -9  -1  -4   97.95    2.79
  -9  -1  -4  101.82    2.67
  -9  -1  -4  105.77    2.87
  -9  -1  -5    7.24    0.87
  -9  -1  -5    9.47    1.01
  -9  -1  -6  167.63    3.76
  -9  -1  -6  164.95    3.70
  -9  -1  -7    1.14    0.52
  -9  -1  -7    1.25    0.57
  -9  -1  -7    1.46    0.51
  -9  -1  -8    1.62    0.46
  -9  -1  -8    2.55    0.55
  -9  -1  -8    2.29    0.48
  -9  -1  -9    0.76    0.30
  -9  -1  -9    0.73    0.40
  -9  -1  -9    0.75    0.35
   9   2  -9    2.96    0.41
  -9  -2   9    2.75    0.55
  -9  -2   9    2.57    0.44
   9   2  -8   29.59    1.10
  -9  -2   8   31.04    1.65
  -9  -2   8   29.93    1.38
   9   2  -7  160.08    3.23
  -9  -2   7  154.16    4.52
  -9  -2   7  159.38    4.04
   9   2  -6    0.88    0.51
  -9  -2   6    1.08    0.87
  -9  -2   6    0.62    0.78
   9   2  -5  256.66    4.79
  -9  -2   5  262.56    5.29
  -9  -2   4   95.85    2.83
  -9  -2   4   82.13    3.40
  -9  -2   3    0.79    0.70
  -9  -2   3    2.13    0.90
  -9  -2   2    9.10    1.17
  -9  -2   1  315.21    6.76
  -9  -2   1  312.49    6.72
  -9  -2   0  806.51   14.27
  -9  -2   0  874.50   14.20
  -9  -2  -1   94.18    2.99
  -9  -2  -2  443.60    8.12
  -9  -2  -3    1.11    0.60
  -9  -2  -5  126.07    3.17
  -9  -2  -5  122.84    3.20
  -9  -2  -6    8.38    0.85
  -9  -2  -6    7.86    0.83
  -9  -2  -7   64.63    2.03
  -9  -2  -7   63.90    2.01
  -9  -2  -7   62.47    2.19
  -9  -2  -8  133.55    3.03
  -9  -2  -8  128.14    2.95
  -9  -2  -8  129.19    3.14
  -9  -2  -9    2.36    0.46
  -9  -2  -9    3.03    0.54
  -9  -2  -9    2.85    0.49
  -9  -2 -10   17.24    0.73
   9   3  -8   10.68    0.71
  -9  -3   8   10.61    0.97
  -9  -3   8   11.49    0.89
   9   3  -7  112.92    2.57
  -9  -3   7  109.58    3.54
  -9  -3   7  112.46    3.20
   9   3  -6  110.51    2.64
  -9  -3   6  111.22    3.48
  -9  -3   5  173.86    3.93
  -9  -3   5  155.63    4.94
  -9  -3   4   10.07    1.02
  -9  -3   4    8.61    1.37
  -9  -3   3    9.22    1.02
  -9  -3   3    8.67    1.29
  -9  -3   2   31.52    1.78
  -9  -3   2   28.07    1.96
  -9  -3   1   37.36    2.01
  -9  -3   1   38.40    2.07
  -9  -3   0   61.51    2.65
  -9  -3   0   63.80    2.03
  -9  -3   0   62.23    2.46
  -9  -3  -1  105.84    3.44
  -9  -3  -1  109.28    2.76
  -9  -3  -2   44.55    2.00
  -9  -3  -2   42.76    1.61
  -9  -3  -3  211.28    4.65
  -9  -3  -6   16.45    1.11
  -9  -3  -6   17.75    1.20
  -9  -3  -7    0.65    0.54
  -9  -3  -7    1.81    0.57
  -9  -3  -7    0.55    0.54
  -9  -3  -8    0.48    0.52
  -9  -3  -8    0.25    0.49
  -9  -3  -8    0.38    0.51
  -9  -3  -8    0.22    0.47
  -9  -3  -9    0.90    0.45
  -9  -3  -9    0.92    0.47
  -9  -3  -9    0.86    0.48
  -9  -3  -9    1.06    0.46
  -9  -3 -10   21.83    0.94
  -9  -3 -10   21.74    0.92
  -9  -3 -10   20.66    0.90
   9   4  -8  200.36    3.58
  -9  -4   8  202.00    4.05
   9   4  -7   22.55    1.04
  -9  -4   7   22.42    1.43
  -9  -4   7   23.41    1.38
   9   4  -6    3.27    0.66
  -9  -4   6    2.96    0.82
  -9  -4   5  107.43    2.84
  -9  -4   4  223.16    4.88
  -9  -4   4  212.90    5.99
  -9  -4   3   90.77    2.92
  -9  -4   3   93.94    2.47
  -9  -4   2   57.45    2.42
  -9  -4   2   51.99    2.82
  -9  -4   2   57.31    1.81
  -9  -4   1  151.19    4.65
  -9  -4   1  159.45    3.44
  -9  -4   0   12.80    1.42
  -9  -4   0   12.86    0.94
  -9  -4   0   11.97    1.22
  -9  -4   0   13.33    0.89
  -9  -4  -1  143.66    4.45
  -9  -4  -1  148.66    3.52
  -9  -4  -1  154.62    3.45
  -9  -4  -2  332.36    7.28
  -9  -4  -2  331.61    6.33
  -9  -4  -2  349.54    6.29
  -9  -4  -3  101.61    3.20
  -9  -4  -3  105.23    2.86
  -9  -4  -3  110.96    2.84
  -9  -4  -4   12.07    0.96
  -9  -4  -4   13.68    0.97
  -9  -4  -5  962.96   15.36
  -9  -4  -6    2.26    0.58
  -9  -4  -6    2.98    0.68
  -9  -4  -6    2.61    0.63
  -9  -4  -7  120.07    3.35
  -9  -4  -7  119.93    3.12
  -9  -4  -7  117.32    3.28
  -9  -4  -8    1.04    0.59
  -9  -4  -8    1.00    0.58
  -9  -4  -8    1.57    0.63
  -9  -4  -8    1.28    0.55
  -9  -4  -9    4.30    0.69
  -9  -4  -9    6.09    0.74
  -9  -4  -9    4.27    0.63
  -9  -4  -9    4.59    0.66
  -9  -4 -10    1.52    0.42
  -9  -4 -10    1.44    0.43
  -9  -4 -10    1.21    0.45
  -9  -4 -11   14.59    0.68
   9   5  -7   54.74    1.54
  -9  -5   7   55.77    1.98
   9   5  -6   49.70    1.63
  -9  -5   6   49.02    2.10
  -9  -5   5    0.69    0.87
  -9  -5   4   99.88    2.86
  -9  -5   4   93.96    3.78
  -9  -5   4   95.50    3.69
  -9  -5   3  115.85    4.36
  -9  -5   3  110.87    4.29
  -9  -5   3  119.48    2.94
  -9  -5   2  660.38   11.66
  -9  -5   2  633.77   12.62
  -9  -5   2  672.94   10.71
  -9  -5   1  143.38    4.19
  -9  -5   1  136.25    4.62
  -9  -5   1  144.82    3.29
  -9  -5   0   38.50    1.62
  -9  -5   0   37.82    2.14
  -9  -5   0   37.87    1.52
  -9  -5  -1  297.33    5.86
  -9  -5  -1  303.56    5.76
  -9  -5  -2    4.23    1.27
  -9  -5  -2    3.78    0.68
  -9  -5  -2    4.05    0.62
  -9  -5  -3  225.02    5.78
  -9  -5  -3  223.37    4.93
  -9  -5  -4    6.52    0.77
  -9  -5  -4    6.12    0.98
  -9  -5  -4    5.04    0.74
  -9  -5  -4    5.92    0.75
  -9  -5  -5   54.54    2.02
  -9  -5  -5   47.45    1.96
  -9  -5  -5   51.80    1.98
  -9  -5  -6  117.92    3.22
  -9  -5  -6  119.31    3.17
  -9  -5  -6  109.36    3.11
  -9  -5  -7  100.58    3.02
  -9  -5  -7   97.90    2.77
  -9  -5  -7  103.13    2.98
  -9  -5  -8   59.11    2.24
  -9  -5  -8   62.09    2.19
  -9  -5  -9    9.56    0.91
  -9  -5  -9    7.82    0.80
  -9  -5 -10   19.09    1.05
  -9  -5 -10   19.44    1.00
  -9  -5 -11  132.00    2.76
  -9  -5 -11  140.59    2.74
   9   6  -7    0.51    0.37
  -9  -6   7    0.16    0.48
  -9  -6   6    1.14    0.66
  -9  -6   5   15.53    1.37
  -9  -6   4    5.57    0.77
  -9  -6   4    6.67    1.20
  -9  -6   4    7.08    1.17
  -9  -6   3    0.55    0.68
  -9  -6   3    0.05    0.91
  -9  -6   3    0.40    1.08
  -9  -6   3    0.30    0.48
  -9  -6   2   30.97    1.80
  -9  -6   2   27.92    2.30
  -9  -6   2   28.33    1.31
  -9  -6   1    4.04    1.01
  -9  -6   1    3.67    1.29
  -9  -6   1    3.77    0.62
  -9  -6   0   22.43    1.86
  -9  -6   0   21.87    1.82
  -9  -6   0   20.67    1.17
  -9  -6  -1  421.04    9.20
  -9  -6  -1  410.01    7.58
  -9  -6  -1  403.34    7.44
  -9  -6  -2  124.47    4.71
  -9  -6  -2  128.93    3.38
  -9  -6  -2  128.69    3.31
  -9  -6  -3  104.15    3.03
  -9  -6  -3  109.75    3.05
  -9  -6  -4  155.95    4.68
  -9  -6  -4  157.81    3.82
  -9  -6  -5   54.30    2.06
  -9  -6  -5   51.40    2.23
  -9  -6  -5   52.40    1.88
  -9  -6  -5   52.80    2.05
  -9  -6  -6   24.68    1.41
  -9  -6  -6   24.77    1.35
  -9  -6  -6   24.43    1.41
  -9  -6  -7    0.85    0.54
  -9  -6  -7    1.37    0.62
  -9  -6  -7    1.40    0.59
  -9  -6  -8  103.42    3.01
  -9  -6  -8  102.81    2.93
  -9  -6  -9   75.52    2.42
  -9  -6  -9   73.22    2.26
  -9  -6 -10   75.45    2.20
  -9  -6 -10   76.69    2.10
  -9  -6 -11    8.67    0.62
  -9  -6 -11    8.60    0.59
  -9  -6 -11    7.91    0.57
   9   7  -6    2.28    0.43
  -9  -7   6    3.13    0.63
  -9  -7   5    4.79    0.83
  -9  -7   4  130.62    3.90
  -9  -7   4  131.14    3.91
  -9  -7   3    0.63    0.61
  -9  -7   3    0.49    0.85
  -9  -7   3    0.04    0.89
  -9  -7   3    0.69    0.51
  -9  -7   2    0.46    0.71
  -9  -7   2    0.16    1.04
  -9  -7   2    0.53    0.45
  -9  -7   1    8.27    1.22
  -9  -7   1    7.56    1.47
  -9  -7   1    9.15    0.80
  -9  -7   0  177.74    5.00
  -9  -7   0  187.02    4.10
  -9  -7   0  174.52    5.34
  -9  -7   0  172.92    3.87
  -9  -7  -1  530.50    9.14
  -9  -7  -1  509.42    8.94
  -9  -7  -2   79.09    3.77
  -9  -7  -2   76.98    2.41
  -9  -7  -3  194.17    6.27
  -9  -7  -3  188.39    4.45
  -9  -7  -3  199.98    4.43
  -9  -7  -4   51.51    2.99
  -9  -7  -4   48.26    1.98
  -9  -7  -4   52.27    2.00
  -9  -7  -5   22.26    1.77
  -9  -7  -5   24.90    1.26
  -9  -7  -5   23.09    1.35
  -9  -7  -6   11.33    1.00
  -9  -7  -6   11.22    0.93
  -9  -7  -6   10.11    0.96
  -9  -7  -7  152.87    3.81
  -9  -7  -7  148.10    3.67
  -9  -7  -7  144.90    3.77
  -9  -7  -8    2.14    0.66
  -9  -7  -8    2.78    0.65
  -9  -7  -8    2.36    0.66
  -9  -7  -9   36.08    1.61
  -9  -7  -9   35.33    1.53
  -9  -7  -9   32.06    1.58
  -9  -7 -10   48.39    1.70
  -9  -7 -10   47.31    1.61
  -9  -7 -10   46.00    1.71
  -9  -7 -11    0.86    0.34
  -9  -7 -11    0.75    0.33
  -9  -7 -11    0.64    0.33
   9   8  -5   11.88    0.64
  -9  -8   4    0.83    0.61
  -9  -8   4    0.82    0.67
  -9  -8   3   36.40    1.88
  -9  -8   3   37.59    2.01
  -9  -8   2    1.67    0.72
  -9  -8   2    0.86    0.92
  -9  -8   1   13.74    1.30
  -9  -8   1   12.29    1.56
  -9  -8   0   22.33    1.74
  -9  -8   0   21.50    1.86
  -9  -8  -1   25.23    2.05
  -9  -8  -1   25.56    1.27
  -9  -8  -2   40.11    2.74
  -9  -8  -2   43.88    1.73
  -9  -8  -3   60.27    3.53
  -9  -8  -3   68.71    2.30
  -9  -8  -4  142.53    5.33
  -9  -8  -4  135.89    3.47
  -9  -8  -5   24.54    2.06
  -9  -8  -5   23.76    1.21
  -9  -8  -5   22.98    1.32
  -9  -8  -6  214.26    4.50
  -9  -8  -6  217.12    4.71
  -9  -8  -7   89.89    2.59
  -9  -8  -7   89.55    2.72
  -9  -8  -8   58.92    2.10
  -9  -8  -8   56.89    2.00
  -9  -8  -8   53.83    2.04
  -9  -8  -9   65.48    2.14
  -9  -8  -9   63.02    2.03
  -9  -8 -10   97.09    2.41
  -9  -8 -10   93.33    2.50
  -9  -8 -11   68.21    1.68
  -9  -8 -11   65.21    1.74
  -9  -9   4   38.97    1.49
  -9  -9   3  101.57    2.95
  -9  -9   2    3.19    0.65
  -9  -9   2    2.66    0.86
  -9  -9   1    3.42    0.82
  -9  -9   1    3.00    0.97
  -9  -9   1    4.38    0.58
  -9  -9   0   21.21    1.56
  -9  -9   0   22.08    1.70
  -9  -9   0   24.91    1.15
  -9  -9  -1   94.17    3.44
  -9  -9  -1  102.73    2.58
  -9  -9  -1   98.07    2.53
  -9  -9  -2   12.79    0.90
  -9  -9  -2   12.52    0.89
  -9  -9  -3    1.43    0.53
  -9  -9  -3    2.07    1.41
  -9  -9  -3    1.90    0.53
  -9  -9  -4   34.82    2.69
  -9  -9  -4   36.40    1.58
  -9  -9  -4   35.88    1.52
  -9  -9  -5  281.65    7.24
  -9  -9  -5  276.93    5.59
  -9  -9  -5  275.21    5.26
  -9  -9  -5  283.78    5.52
  -9  -9  -6  164.45    4.55
  -9  -9  -6  159.25    3.84
  -9  -9  -6  163.13    3.63
  -9  -9  -6  167.03    3.80
  -9  -9  -7   60.62    1.96
  -9  -9  -7   59.83    2.04
  -9  -9  -8  243.45    4.78
  -9  -9  -8  228.48    4.82
  -9  -9  -9   20.80    1.08
  -9  -9 -10   20.18    0.95
  -9  -9 -11  265.75    4.49
  -9 -10   2   34.53    1.48
  -9 -10   1  213.50    4.26
  -9 -10   1  213.38    4.76
  -9 -10   0   31.09    1.59
  -9 -10   0   35.91    1.26
  -9 -10  -1    3.82    0.92
  -9 -10  -1    3.88    0.54
  -9 -10  -2   75.07    1.98
  -9 -10  -2   75.56    2.03
  -9 -10  -3    4.84    1.24
  -9 -10  -3    5.19    0.57
  -9 -10  -3    4.67    0.57
  -9 -10  -4   41.30    1.50
  -9 -10  -4   40.28    1.46
  -9 -10  -5   85.66    3.54
  -9 -10  -5   90.93    2.45
  -9 -10  -5   89.52    2.27
  -9 -10  -5   92.21    2.40
  -9 -10  -6    2.81    0.54
  -9 -10  -6    3.17    0.99
  -9 -10  -6    3.50    0.59
  -9 -10  -6    3.16    0.52
  -9 -10  -7   13.20    0.94
  -9 -10  -7   14.77    0.90
  -9 -10  -7   14.91    0.91
  -9 -10  -8   84.57    2.20
  -9 -10  -8   83.64    2.21
  -9 -10  -9    7.26    0.65
  -9 -10  -9    7.04    0.62
  -9 -10 -10   18.71    0.89
  -9 -10 -10   21.23    0.87
  -9 -10 -10   18.99    0.84
  -9 -11  -1   90.45    2.52
  -9 -11  -2   52.69    2.13
  -9 -11  -2   57.84    1.51
  -9 -11  -3   30.88    1.06
  -9 -11  -4    8.13    1.27
  -9 -11  -4    8.60    0.58
  -9 -11  -4    8.97    0.60
  -9 -11  -5   52.50    2.45
  -9 -11  -5   53.38    1.52
  -9 -11  -5   53.40    1.52
  -9 -11  -5   55.05    1.51
  -9 -11  -6   36.77    1.84
  -9 -11  -6   37.63    1.28
  -9 -11  -6   37.54    1.26
  -9 -11  -6   37.60    1.24
  -9 -11  -7  107.10    2.45
  -9 -11  -7  110.94    2.44
  -9 -11  -7  107.62    2.34
  -9 -11  -8   20.31    0.94
  -9 -11  -8   22.57    0.96
  -9 -11  -8   21.22    0.88
  -9 -11  -9    5.84    0.51
  -9 -11  -9    7.30    0.54
  -9 -12  -3    3.23    0.63
  -9 -12  -4  121.02    3.14
  -9 -12  -5   49.50    1.89
  -9 -12  -6    0.34    0.56
 -10   4   3    5.31    0.52
 -10   4   2  126.91    2.54
 -10   3   5    2.13    0.44
 -10   3   4   62.83    1.76
 -10   3   3  114.31    2.64
 -10   3   2    1.99    0.55
 -10   3   2    1.01    0.46
 -10   3   1   36.36    1.34
 -10   3   1   34.68    1.25
 -10   3   0   38.40    1.41
 -10   3   0   40.71    1.32
 -10   3  -1   16.71    0.88
 -10   3  -1   18.28    0.87
 -10   2   6   11.17    0.69
 -10   2   5   28.85    1.24
 -10   2   5   25.22    1.15
 -10   2   4  129.42    3.04
 -10   2   4  108.77    2.78
 -10   2   3   50.31    1.83
 -10   2   3   49.61    1.70
 -10   2   2   71.76    2.18
 -10   2   2   73.92    2.11
 -10   2   1   19.43    1.03
 -10   2   1   21.68    1.08
 -10   2   0   22.04    1.10
 -10   2   0   19.67    1.02
 -10   2  -1    1.21    0.61
 -10   2  -1    1.18    0.53
 -10   2  -2   54.51    1.68
 -10   2  -2   56.39    1.69
 -10   2  -3    3.55    0.52
 -10   1   7   39.46    1.21
 -10   1   7   43.53    1.48
 -10   1   6  283.59    5.03
 -10   1   6  281.79    5.48
 -10   1   5   88.72    2.37
 -10   1   5   71.76    2.33
 -10   1   4    4.50    0.88
 -10   1   4    3.37    0.82
 -10   1   3  197.46    4.37
 -10   1   3  185.77    4.17
 -10   1   3  197.54    4.50
 -10   1   2    1.85    0.62
 -10   1   1   86.67    2.48
 -10   1   1   83.83    2.40
 -10   1   0    2.34    0.53
 -10   1   0    2.86    0.64
 -10   1   0    1.92    0.58
 -10   1  -1   30.87    1.34
 -10   1  -1   28.54    1.27
 -10   1  -2  191.47    4.04
 -10   1  -2  202.94    4.11
 -10   1  -2  199.18    3.99
 -10   1  -3   90.42    2.33
 -10   1  -3   95.43    2.40
 -10   1  -4   99.92    2.33
 -10   1  -5   12.27    0.69
 -10   0   7    2.19    0.42
 -10   0   7    2.33    0.51
 -10   0   6    1.00    0.46
 -10   0   6    1.13    0.55
 -10   0   5   48.02    1.68
 -10   0   4   47.29    1.78
 -10   0   4   41.92    1.99
 -10   0   3    1.90    0.68
 -10   0   3    1.79    0.65
 -10   0   2   64.01    2.29
 -10   0   2   66.05    2.35
 -10   0   1    1.27    0.62
 -10   0   1    1.35    0.67
 -10   0   1    1.55    0.58
 -10   0   0  103.42    2.77
 -10   0   0  107.58    2.84
 -10   0   0  102.26    2.61
 -10   0  -1   10.34    0.79
 -10   0  -1   10.43    0.93
 -10   0  -1   10.56    0.86
 -10   0  -2  191.56    4.01
 -10   0  -2  183.87    3.88
 -10   0  -3    5.95    0.76
 -10   0  -3    5.46    0.72
 -10   0  -4   69.30    1.97
 -10   0  -4   69.53    2.05
 -10   0  -5    9.83    0.72
 -10   0  -6    8.46    0.60
 -10  -1   8   30.98    1.11
 -10  -1   7   37.05    1.46
 -10  -1   6  214.07    4.11
 -10  -1   6  209.15    4.71
 -10  -1   5   83.58    2.33
 -10  -1   4    3.16    0.66
 -10  -1   4    3.09    0.82
 -10  -1   3    4.66    0.88
 -10  -1   2  126.57    3.47
 -10  -1   2  121.89    3.56
 -10  -1   1  158.24    4.02
 -10  -1   1  165.09    4.08
 -10  -1   0  229.31    5.05
 -10  -1   0  237.90    4.99
 -10  -1   0  247.45    5.14
 -10  -1  -1    0.20    0.49
 -10  -1  -1   -0.05    0.60
 -10  -1  -2   22.47    1.21
 -10  -1  -2   22.18    1.14
 -10  -1  -3   63.90    1.97
 -10  -1  -3   61.19    1.93
 -10  -1  -4  316.04    5.85
 -10  -1  -5  231.60    4.41
 -10  -1  -6   12.76    0.78
 -10  -1  -7  189.23    3.41
 -10  -1  -7  177.54    3.35
 -10  -2   7   74.22    2.18
 -10  -2   6    1.78    0.46
 -10  -2   6    2.02    0.65
 -10  -2   5   39.86    1.52
 -10  -2   4   15.53    1.06
 -10  -2   4   14.20    1.36
 -10  -2   3  115.17    3.15
 -10  -2   3  107.67    3.62
 -10  -2   2  334.20    7.13
 -10  -2   1   11.48    1.17
 -10  -2   1   10.37    1.06
 -10  -2   0   41.08    1.94
 -10  -2   0   44.56    1.87
 -10  -2  -1    1.72    0.66
 -10  -2  -1    1.19    0.67
 -10  -2  -2   58.67    1.98
 -10  -2  -2   64.32    2.07
 -10  -2  -3   44.28    1.63
 -10  -2  -7   11.01    0.71
 -10  -2  -8   34.00    1.06
  10   3  -7   22.64    0.83
 -10  -3   7   24.54    1.15
  10   3  -6  102.32    2.20
 -10  -3   6  103.36    2.95
 -10  -3   5   17.25    1.01
 -10  -3   4  110.29    2.87
 -10  -3   4  101.40    3.60
 -10  -3   3   28.63    1.50
 -10  -3   3   28.42    1.96
 -10  -3   2   10.72    1.13
 -10  -3   2   10.53    1.27
 -10  -3   1  174.55    4.47
 -10  -3   1  169.92    4.53
 -10  -3   0  243.74    5.77
 -10  -3   0  275.38    5.71
 -10  -3  -1    7.07    1.00
 -10  -3  -2   70.43    2.39
 -10  -3  -2   74.04    2.27
 -10  -3  -3    1.15    0.53
 -10  -3  -8   26.35    1.02
  10   4  -7    2.43    0.40
 -10  -4   7    2.63    0.50
  10   4  -6   26.10    1.00
 -10  -4   6   25.46    1.37
  10   4  -5  271.85    4.75
 -10  -4   5  264.76    4.91
 -10  -4   4  165.04    3.71
 -10  -4   4  161.85    4.70
 -10  -4   3  137.63    3.47
 -10  -4   3  130.69    4.36
 -10  -4   2  259.31    5.56
 -10  -4   2  244.24    6.37
 -10  -4   1   56.31    2.56
 -10  -4   0    1.59    0.93
 -10  -4   0    2.11    0.72
 -10  -4  -1    0.31    0.83
 -10  -4  -2   86.66    2.96
 -10  -4  -2   86.75    2.39
 -10  -4  -3    7.49    0.90
 -10  -4  -3    7.15    0.71
 -10  -4  -8  153.67    3.29
 -10  -4  -9    9.21    0.59
  10   5  -6   94.44    2.06
 -10  -5   6   90.18    2.53
  10   5  -5   14.11    0.86
 -10  -5   5   13.68    1.18
 -10  -5   4   48.90    1.73
 -10  -5   4   50.26    2.38
 -10  -5   3   36.46    1.62
 -10  -5   3   31.21    2.15
 -10  -5   2  103.07    3.08
 -10  -5   2   97.89    3.86
 -10  -5   1  476.54    9.17
 -10  -5   1  475.17    9.86
 -10  -5   1  492.62    8.18
 -10  -5   0   10.07    1.32
 -10  -5   0   10.19    1.16
 -10  -5   0   10.68    0.78
 -10  -5  -1    0.60    0.43
 -10  -5  -1    1.06    1.06
 -10  -5  -1    0.96    0.48
 -10  -5  -2   26.01    1.86
 -10  -5  -2   25.59    1.27
 -10  -5  -2   25.15    1.18
 -10  -5  -3   31.48    1.80
 -10  -5  -3   29.18    1.36
 -10  -5  -3   29.37    1.28
 -10  -5  -4   22.90    1.32
 -10  -5  -4   22.43    1.21
 -10  -5  -4   23.32    1.15
 -10  -5  -5    0.72    0.42
 -10  -5  -5    0.24    0.45
 -10  -5  -6  158.48    3.63
 -10  -5  -7   10.26    0.84
 -10  -5  -8    0.89    0.44
 -10  -5  -8    0.41    0.42
 -10  -5  -9   18.46    0.92
 -10  -5  -9   19.05    0.90
  10   6  -6   15.82    0.71
 -10  -6   6   15.64    0.90
  10   6  -5   88.16    2.08
 -10  -6   5   85.48    2.59
 -10  -6   4   26.90    1.17
 -10  -6   4   28.15    1.68
 -10  -6   3    2.32    0.65
 -10  -6   3    2.49    0.95
 -10  -6   2   79.48    2.58
 -10  -6   2   84.65    2.25
 -10  -6   1   86.26    2.91
 -10  -6   1   82.14    3.42
 -10  -6   1   90.83    2.36
 -10  -6   0  244.07    5.89
 -10  -6   0  247.38    4.78
 -10  -6  -1    0.40    0.44
 -10  -6  -1    1.22    1.11
 -10  -6  -1    1.14    0.52
 -10  -6  -2   35.11    2.32
 -10  -6  -2   34.47    1.49
 -10  -6  -2   32.89    1.40
 -10  -6  -3   12.78    1.48
 -10  -6  -3   12.31    0.93
 -10  -6  -3   11.99    0.90
 -10  -6  -4   46.54    2.12
 -10  -6  -4   44.51    1.75
 -10  -6  -4   46.72    1.70
 -10  -6  -5  110.16    3.04
 -10  -6  -5  121.54    3.02
 -10  -6  -6  133.68    3.54
 -10  -6  -6  159.94    3.58
 -10  -6  -7   39.21    1.57
 -10  -6  -7   37.62    1.44
 -10  -6  -8  105.04    2.68
 -10  -6  -8  105.58    2.55
 -10  -6  -9   32.19    1.26
 -10  -6  -9   32.20    1.19
  10   7  -5    0.13    0.39
 -10  -7   5    0.17    0.46
 -10  -7   4  137.42    3.54
 -10  -7   3   31.29    1.35
 -10  -7   3   31.09    1.82
 -10  -7   2  171.31    4.03
 -10  -7   2  164.08    4.90
 -10  -7   1   72.49    2.56
 -10  -7   1   72.87    3.13
 -10  -7   0   83.37    3.00
 -10  -7   0   85.55    3.13
 -10  -7   0   89.05    2.34
 -10  -7  -1   79.25    3.23
 -10  -7  -1   80.00    2.27
 -10  -7  -2   -0.16    0.49
 -10  -7  -2    0.70    1.24
 -10  -7  -2    0.59    0.48
 -10  -7  -3   45.16    2.71
 -10  -7  -3   46.27    1.75
 -10  -7  -3   45.82    1.70
 -10  -7  -4   44.81    2.38
 -10  -7  -4   42.95    1.73
 -10  -7  -4   44.23    1.68
 -10  -7  -5    1.53    0.49
 -10  -7  -5    0.83    0.68
 -10  -7  -5    0.60    0.51
 -10  -7  -6   53.36    2.02
 -10  -7  -6   59.08    1.97
 -10  -7  -7   32.86    1.32
 -10  -7  -7   29.82    1.37
 -10  -7  -8   17.58    0.96
 -10  -7  -8   15.69    1.01
 -10  -7  -9   76.55    1.95
 -10  -7  -9   69.83    2.00
 -10  -8   4    0.79    0.48
 -10  -8   3   15.31    1.16
 -10  -8   2   43.22    1.62
 -10  -8   2   40.02    2.01
 -10  -8   1   27.71    1.48
 -10  -8   1   25.94    1.75
 -10  -8   1   29.62    1.20
 -10  -8   0   12.20    1.21
 -10  -8   0   15.14    0.89
 -10  -8  -1   21.94    1.08
 -10  -8  -2   61.96    2.97
 -10  -8  -2   62.79    1.98
 -10  -8  -2   62.40    1.91
 -10  -8  -3    2.58    0.54
 -10  -8  -3    3.74    1.41
 -10  -8  -4    0.47    0.46
 -10  -8  -4    0.25    1.10
 -10  -8  -4    0.33    0.44
 -10  -8  -5    1.57    0.52
 -10  -8  -5    1.71    0.87
 -10  -8  -5    1.50    0.53
 -10  -8  -6    2.43    0.53
 -10  -8  -6    1.55    0.55
 -10  -8  -7    9.48    0.87
 -10  -8  -7   11.61    0.78
 -10  -8  -7   12.37    0.88
 -10  -8  -8  146.58    3.02
 -10  -8  -8  135.97    3.14
 -10  -8  -9    2.40    0.43
 -10  -8  -9    3.08    0.49
 -10  -9   2    0.13    0.50
 -10  -9   1  116.85    2.81
 -10  -9   1  110.03    3.11
 -10  -9   0    8.63    0.95
 -10  -9  -1    9.62    1.12
 -10  -9  -2   32.20    1.28
 -10  -9  -3   -0.09    1.09
 -10  -9  -3    0.82    0.42
 -10  -9  -4  147.99    4.61
 -10  -9  -4  154.71    3.41
 -10  -9  -5    3.93    1.00
 -10  -9  -6   20.71    1.22
 -10  -9  -6   19.89    1.09
 -10  -9  -6   21.62    1.09
 -10  -9  -7    1.54    0.45
 -10  -9  -7    1.21    0.38
 -10  -9  -7    1.17    0.48
 -10  -9  -8   62.85    1.67
 -10  -9  -8   59.80    1.77
 -10  -9  -9    1.68    0.38
 -10  -9  -9    1.70    0.36
 -10  -9  -9    1.27    0.37
 -10 -10   0    0.93    0.49
 -10 -10  -1   43.32    1.73
 -10 -10  -1   47.40    1.39
 -10 -10  -2    0.65    0.33
 -10 -10  -3    8.40    1.19
 -10 -10  -3   10.35    0.67
 -10 -10  -3   10.13    0.67
 -10 -10  -4    0.92    0.38
 -10 -10  -4    0.90    0.93
 -10 -10  -4    1.31    0.38
 -10 -10  -5   53.26    2.21
 -10 -10  -5   53.28    1.61
 -10 -10  -5   55.40    1.59
 -10 -10  -6   36.07    1.52
 -10 -10  -6   39.71    1.38
 -10 -10  -6   40.48    1.33
 -10 -10  -7  176.24    3.24
 -10 -10  -7  177.18    3.39
 -10 -10  -8  159.10    3.11
 -10 -11  -2   10.69    0.84
 -10 -11  -3   13.23    0.64
 -10 -11  -4    0.80    0.29
 -10 -11  -4    0.59    0.64
 -10 -11  -5    3.32    0.71
 -10 -11  -5    3.01    0.37
 -10 -11  -5    3.18    0.37
 -10 -11  -6    9.67    0.56
 -11   2   2   77.63    1.88
 -11   1   4   16.39    0.87
 -11   1   3   12.78    0.84
 -11   1   3   13.50    0.84
 -11   1   2    6.03    0.62
 -11   1   2    4.29    0.58
 -11   1   1   48.21    1.48
 -11   1   1   47.34    1.45
 -11   1   0   60.33    1.69
 -11   1   0   59.53    1.64
 -11   1  -1   27.23    1.08
 -11   1  -1   24.27    1.00
 -11   0   5   16.07    0.80
 -11   0   5   15.50    0.86
 -11   0   4    0.06    0.40
 -11   0   4    0.26    0.50
 -11   0   3    0.21    0.45
 -11   0   2   10.24    0.84
 -11   0   1   47.96    1.64
 -11   0   1   48.11    1.60
 -11   0   0    6.12    0.61
 -11   0   0    7.10    0.69
 -11   0  -1  230.46    4.27
 -11   0  -1  225.38    4.18
 -11   0  -2   11.12    0.76
 -11   0  -2    9.88    0.71
 -11  -1   6   18.30    0.83
 -11  -1   5   11.78    0.71
 -11  -1   5    9.98    0.80
 -11  -1   5   10.94    0.89
 -11  -1   4    2.76    0.53
 -11  -1   4    2.34    0.67
 -11  -1   4    2.38    0.64
 -11  -1   3  129.32    3.40
 -11  -1   2   20.52    1.16
 -11  -1   2   21.74    1.23
 -11  -1   2   21.64    1.24
 -11  -1   1    1.59    0.58
 -11  -1   1    2.10    0.62
 -11  -1   0    0.74    0.47
 -11  -1   0    0.41    0.50
 -11  -1  -1   49.44    1.58
 -11  -1  -1   57.78    1.73
 -11  -1  -2  128.59    2.81
 -11  -1  -3   32.31    1.20
 -11  -2   5    6.17    0.56
 -11  -2   5    6.47    0.74
 -11  -2   4    2.81    0.52
 -11  -2   4    2.55    0.69
 -11  -2   3   19.05    1.08
 -11  -2   3   18.24    1.30
 -11  -2   2    0.94    0.56
 -11  -2   2    1.29    0.61
 -11  -2   1    1.72    0.68
 -11  -2   1    1.06    0.65
 -11  -2   1    1.60    0.56
 -11  -2   0  270.49    5.56
 -11  -2   0  294.91    5.48
 -11  -2  -1  218.88    4.51
 -11  -2  -1  234.27    4.49
 -11  -2  -2   16.83    0.94
 -11  -3   5    2.06    0.41
 -11  -3   5    2.05    0.55
 -11  -3   4    1.67    0.47
 -11  -3   4    1.20    0.63
 -11  -3   3    2.36    0.56
 -11  -3   3    1.43    0.68
 -11  -3   2   25.96    1.55
 -11  -3   1    0.23    0.66
 -11  -3   1    0.65    0.54
 -11  -3   0  207.05    4.72
 -11  -3  -1   -0.20    0.59
 -11  -3  -1    0.20    0.53
 -11  -3  -2   44.08    1.62
 -11  -3  -2   46.37    1.53
 -11  -4   5    4.38    0.63
 -11  -4   4    6.46    0.62
 -11  -4   4    7.03    0.89
 -11  -4   3    4.54    0.65
 -11  -4   3    4.85    0.92
 -11  -4   2   12.73    0.98
 -11  -4   2   11.69    1.19
 -11  -4   1   24.39    1.43
 -11  -4   1   24.83    1.47
 -11  -4   0  209.59    4.91
 -11  -4  -1  115.09    3.32
 -11  -4  -1  113.98    2.79
 -11  -4  -2   25.85    1.40
 -11  -4  -3   22.41    1.12
 -11  -5   5    2.28    0.50
 -11  -5   4   62.06    1.65
 -11  -5   4   65.24    2.21
 -11  -5   3   14.57    0.90
 -11  -5   3   13.48    1.25
 -11  -5   2    4.58    0.71
 -11  -5   2    3.57    0.91
 -11  -5   1   58.29    2.31
 -11  -5   0  339.85    6.94
 -11  -5  -1   91.71    3.19
 -11  -5  -2    3.82    0.89
 -11  -5  -3   32.73    1.56
 -11  -6   4    2.45    0.58
 -11  -6   3  242.58    4.45
 -11  -6   3  242.84    5.27
 -11  -6   2  442.44    7.51
 -11  -6   2  417.08    8.34
 -11  -6   1  214.87    4.64
 -11  -6   1  210.29    5.04
 -11  -6   0   39.09    1.30
 -11  -6  -1   23.24    1.65
 -11  -6  -1   24.29    1.00
 -11  -6  -2  127.04    3.82
 -11  -6  -2  123.89    2.67
 -11  -6  -3  129.51    3.55
 -11  -6  -3  128.19    2.95
 -11  -6  -3  121.73    2.68
 -11  -6  -4   17.80    1.09
 -11  -6  -4   15.71    0.93
 -11  -6  -4   15.61    0.84
 -11  -6  -5  158.43    3.44
 -11  -7   3    0.63    0.48
 -11  -7   2    0.12    0.44
 -11  -7   2   -0.13    0.57
 -11  -7   1   12.22    0.94
 -11  -7   1   14.34    0.79
 -11  -7   0   20.63    0.95
 -11  -7  -1  131.74    3.74
 -11  -7  -1  135.91    2.86
 -11  -7  -2  195.64    5.16
 -11  -7  -2  214.37    3.98
 -11  -7  -3    1.37    0.40
 -11  -7  -3    1.52    0.87
 -11  -7  -3    1.50    0.44
 -11  -7  -4   20.61    1.29
 -11  -7  -4   20.00    1.03
 -11  -7  -4   19.66    0.93
 -11  -7  -5    6.03    0.64
 -11  -7  -5    6.35    0.58
 -11  -7  -6   28.79    1.21
 -11  -7  -6   34.64    1.23
 -11  -7  -7   30.38    1.10
 -11  -7  -7   31.03    1.14
 -11  -8   1    4.15    0.59
 -11  -8   0  101.80    2.75
 -11  -8   0  114.52    2.44
 -11  -8  -1   46.95    1.42
 -11  -8  -2   26.10    1.67
 -11  -8  -2   27.60    1.05
 -11  -8  -3  104.60    3.37
 -11  -8  -3  108.27    2.56
 -11  -8  -3  110.18    2.43
 -11  -8  -4   22.92    1.43
 -11  -8  -4   22.72    1.05
 -11  -8  -4   22.72    0.99
 -11  -8  -5   18.88    0.96
 -11  -8  -5   19.56    0.91
 -11  -8  -6   -0.04    0.34
 -11  -8  -6    0.72    0.39
 -11  -8  -7    2.17    0.41
 -11  -8  -7    2.10    0.39
 -11  -9   0   37.74    1.32
 -11  -9  -1   17.77    1.07
 -11  -9  -1   17.50    0.79
 -11  -9  -2   72.83    2.44
 -11  -9  -2   82.02    1.88
 -11  -9  -3    1.71    0.38
 -11  -9  -3    1.28    0.80
 -11  -9  -4   36.27    1.66
 -11  -9  -4   39.68    1.23
 -11  -9  -5    0.87    0.34
 -11  -9  -5    1.21    0.50
 -11  -9  -5    1.08    0.37
 -11  -9  -6   24.14    1.00
 -11  -9  -6   26.01    0.96
 -11  -9  -7   17.26    0.78
 -11  -9  -7   18.93    0.79
 -11 -10  -3    0.47    0.51
 -12  -2   2  101.52    2.35
 -12  -2   2   94.42    2.37
 -12  -2   1   18.43    0.96
 -12  -2   1   20.28    0.99
 -12  -2   0   47.49    1.51
 -12  -2   0   52.69    1.49
 -12  -3   3    4.25    0.45
 -12  -3   3    3.84    0.63
 -12  -3   2    5.66    0.61
 -12  -3   2    4.84    0.69
 -12  -3   1   89.74    2.37
 -12  -3   1   98.73    2.40
 -12  -3   0    0.81    0.51
 -12  -3   0    0.58    0.43
 -12  -3  -1    0.13    0.39
 -12  -4   2   81.93    2.22
 -12  -4   1    7.37    0.73
 -12  -4   1    7.23    0.71
 -12  -4   0    3.43    0.66
 -12  -4   0    4.63    0.56
 -12  -4  -1   26.48    1.27
 -12  -4  -2    0.69    0.42
 -12  -5   2   96.30    2.17
 -12  -5   0   20.18    1.16
 -12  -5  -1    9.38    0.90
 -12  -5  -2   31.51    1.32
 -12  -6   1   72.63    1.90
 -12  -6   0   90.48    2.41
 -12  -6  -1   38.32    1.60
 -12  -6  -2   57.25    1.94
 -12  -6  -3    2.19    0.51
 -12  -7  -1   57.99    1.88
 -12  -7  -2   88.51    2.47
 -12  -7  -3    0.18    0.45
   0   0   0    0.00    0.00


TITL 0518zjq-1 in P-1
REM P-1 (#2 in standard setting)
CELL 1.54184  10.164213  11.107744  12.607069  67.6332  85.5239  70.2868
ZERR   18.00   0.000185   0.000217   0.000199   0.0017   0.0014   0.0017
LATT  1
SFAC C H N O S
UNIT 18.00 18.00 18.00 18.00 18.00
TREF
HKLF 4
END
_computing_structure_solution     'SHELXT 2014/5 (Sheldrick, 2014)'
;
_shelx_hkl_checksum              70883
_olex2_submission_special_instructions 'No special instructions were received'
_oxdiff_exptl_absorpt_empirical_details
;
Empirical correction (ABSPACK) includes:
- Absorption correction using spherical harmonics
- Frame scaling
;
_oxdiff_exptl_absorpt_empirical_full_max 2.292
_oxdiff_exptl_absorpt_empirical_full_min 0.574
loop_
_space_group_symop_operation_xyz
'x, y, z'
'-x, -y, -z'
loop_
_atom_site_label
_atom_site_type_symbol
_atom_site_fract_x
_atom_site_fract_y
_atom_site_fract_z
_atom_site_U_iso_or_equiv
_atom_site_adp_type
_atom_site_occupancy
_atom_site_site_symmetry_order
_atom_site_calc_flag
_atom_site_refinement_flags_posn
_atom_site_refinement_flags_adp
_atom_site_refinement_flags_occupancy
_atom_site_disorder_assembly
_atom_site_disorder_group
Cl1 Cl 0.65748(4) -0.23259(4) 0.73790(4) 0.04029(13) Uani 1 1 d . . . . .
S1 S 0.12486(4) 0.76205(3) 0.65910(3) 0.02177(11) Uani 1 1 d . . . . .
O1 O -0.01490(12) 0.85420(11) 0.65417(9) 0.0293(2) Uani 1 1 d . . . . .
O2 O 0.24024(12) 0.80291(11) 0.67050(9) 0.0279(2) Uani 1 1 d . . . . .
O3 O 0.35606(10) 0.59027(10) 0.58425(8) 0.0200(2) Uani 1 1 d . . . . .
O4 O 0.19191(11) 0.40091(11) 0.58795(9) 0.0260(2) Uani 1 1 d . . . . .
N1 N 0.13319(12) 0.73535(12) 0.53415(10) 0.0197(2) Uani 1 1 d . . . . .
N2 N 0.33879(13) 0.45518(12) 0.44709(10) 0.0180(2) Uani 1 1 d . . . . .
C1 C -0.00029(15) 0.79633(16) 0.46201(13) 0.0251(3) Uani 1 1 d . . . . .
H1A H -0.042242 0.895546 0.449094 0.030 Uiso 1 1 calc R U . . .
H1B H -0.067440 0.749595 0.502701 0.030 Uiso 1 1 calc R U . . .
C2 C 0.02637(15) 0.78026(15) 0.34890(13) 0.0222(3) Uani 1 1 d . . . . .
C3 C 0.11257(14) 0.63669(14) 0.35957(12) 0.0200(3) Uani 1 1 d . . . . .
H3A H 0.119941 0.630110 0.283052 0.024 Uiso 1 1 calc R U . . .
H3B H 0.067866 0.570173 0.409955 0.024 Uiso 1 1 calc R U . . .
C4 C 0.25885(14) 0.60266(13) 0.41099(12) 0.0176(3) Uani 1 1 d . . . . .
C5 C 0.25298(14) 0.64020(13) 0.51803(11) 0.0180(3) Uani 1 1 d . . . . .
C6 C 0.30025(15) 0.36443(14) 0.54136(12) 0.0204(3) Uani 1 1 d . . . . .
C7 C 0.39689(15) 0.21764(14) 0.58638(12) 0.0215(3) Uani 1 1 d . . . . .
C8 C 0.51193(15) 0.16489(15) 0.52993(13) 0.0221(3) Uani 1 1 d . . . . .
H8 H 0.532814 0.223411 0.458115 0.027 Uiso 1 1 calc R U . . .
C9 C 0.59638(16) 0.02712(15) 0.57801(14) 0.0263(3) Uani 1 1 d . . . . .
H9 H 0.676073 -0.008576 0.540559 0.032 Uiso 1 1 calc R U . . .
C10 C 0.56227(16) -0.05662(15) 0.68101(15) 0.0295(3) Uani 1 1 d . . . . .
C11 C 0.45035(18) -0.00633(18) 0.73989(16) 0.0389(4) Uani 1 1 d . . . . .
H11 H 0.430160 -0.065339 0.811762 0.047 Uiso 1 1 calc R U . . .
C12 C 0.36826(17) 0.13138(17) 0.69237(15) 0.0335(4) Uani 1 1 d . . . . .
H12 H 0.291697 0.167431 0.732370 0.040 Uiso 1 1 calc R U . . .
C13 C 0.34436(14) 0.68582(14) 0.32466(11) 0.0185(3) Uani 1 1 d . . . . .
H13A H 0.312664 0.780341 0.324885 0.022 Uiso 1 1 calc R U . . .
H13B H 0.444155 0.642005 0.352275 0.022 Uiso 1 1 calc R U . . .
C14 C 0.33324(14) 0.69647(14) 0.20228(12) 0.0196(3) Uani 1 1 d . . . . .
C15 C 0.36401(15) 0.58107(15) 0.17280(12) 0.0221(3) Uani 1 1 d . . . . .
H15 H 0.395391 0.491122 0.231059 0.026 Uiso 1 1 calc R U . . .
C16 C 0.34926(17) 0.59630(17) 0.05946(13) 0.0272(3) Uani 1 1 d . . . . .
H16 H 0.370064 0.516801 0.040928 0.033 Uiso 1 1 calc R U . . .
C17 C 0.30434(17) 0.72684(18) -0.02712(13) 0.0313(4) Uani 1 1 d . . . . .
H17 H 0.294422 0.737157 -0.104712 0.038 Uiso 1 1 calc R U . . .
C18 C 0.27416(19) 0.84191(18) 0.00131(14) 0.0342(4) Uani 1 1 d . . . . .
H18 H 0.243232 0.931721 -0.057185 0.041 Uiso 1 1 calc R U . . .
C19 C 0.28887(17) 0.82670(16) 0.11462(13) 0.0275(3) Uani 1 1 d . . . . .
H19 H 0.268320 0.906480 0.132706 0.033 Uiso 1 1 calc R U . . .
C20 C 0.13997(16) 0.60004(15) 0.76674(12) 0.0219(3) Uani 1 1 d . . . . .
C21 C 0.26830(16) 0.51091(16) 0.82241(12) 0.0255(3) Uani 1 1 d . . . . .
H21 H 0.349839 0.536683 0.803725 0.031 Uiso 1 1 calc R U . . .
C22 C 0.27592(18) 0.38345(16) 0.90586(13) 0.0303(3) Uani 1 1 d . . . . .
H22 H 0.363730 0.321559 0.944091 0.036 Uiso 1 1 calc R U . . .
C23 C 0.1574(2) 0.34458(17) 0.93460(13) 0.0317(4) Uani 1 1 d . . . . .
C24 C 0.02974(19) 0.43617(18) 0.87768(14) 0.0341(4) Uani 1 1 d . . . . .
H24 H -0.052105 0.411034 0.896902 0.041 Uiso 1 1 calc R U . . .
C25 C 0.02013(17) 0.56329(17) 0.79349(13) 0.0294(3) Uani 1 1 d . . . . .
H25 H -0.067368 0.624760 0.754422 0.035 Uiso 1 1 calc R U . . .
C26 C 0.1660(3) 0.2057(2) 1.02582(16) 0.0472(5) Uani 1 1 d . . . . .
H26A H 0.264092 0.145501 1.042010 0.071 Uiso 1 1 calc R U . . .
H26B H 0.112281 0.163633 0.998483 0.071 Uiso 1 1 calc R U . . .
H26C H 0.127339 0.217989 1.096134 0.071 Uiso 1 1 calc R U . . .
C27 C -0.02424(17) 0.88563(17) 0.25082(14) 0.0293(3) Uani 1 1 d . . . . .
H27A H -0.010(2) 0.874(2) 0.1789(18) 0.032(5) Uiso 1 1 d . . . . .
H27B H -0.075(2) 0.972(2) 0.2524(18) 0.039(5) Uiso 1 1 d . . . . .
H2 H 0.428(2) 0.434(2) 0.4338(17) 0.034(5) Uiso 1 1 d . . . . .
loop_
_atom_site_aniso_label
_atom_site_aniso_U_11
_atom_site_aniso_U_22
_atom_site_aniso_U_33
_atom_site_aniso_U_23
_atom_site_aniso_U_13
_atom_site_aniso_U_12
Cl1 0.0335(2) 0.01694(19) 0.0565(3) -0.00052(17) -0.01348(19) -0.00319(15)
S1 0.0269(2) 0.01815(18) 0.01895(18) -0.00600(13) 0.00150(13) -0.00708(14)
O1 0.0314(6) 0.0224(5) 0.0273(6) -0.0089(4) 0.0022(4) -0.0014(4)
O2 0.0377(6) 0.0267(5) 0.0240(5) -0.0093(4) 0.0022(4) -0.0167(5)
O3 0.0195(5) 0.0216(5) 0.0171(5) -0.0038(4) -0.0014(4) -0.0084(4)
O4 0.0195(5) 0.0222(5) 0.0293(5) -0.0019(4) 0.0039(4) -0.0080(4)
N1 0.0204(6) 0.0181(6) 0.0181(6) -0.0050(5) -0.0010(4) -0.0051(5)
N2 0.0170(6) 0.0143(5) 0.0197(6) -0.0024(4) -0.0003(4) -0.0059(4)
C1 0.0203(7) 0.0231(7) 0.0263(8) -0.0064(6) -0.0042(6) -0.0024(6)
C2 0.0185(7) 0.0219(7) 0.0253(7) -0.0070(6) -0.0041(5) -0.0066(6)
C3 0.0184(7) 0.0185(7) 0.0219(7) -0.0054(5) -0.0027(5) -0.0066(5)
C4 0.0177(7) 0.0141(6) 0.0186(6) -0.0026(5) -0.0013(5) -0.0058(5)
C5 0.0198(7) 0.0155(6) 0.0173(6) -0.0016(5) 0.0011(5) -0.0092(5)
C6 0.0184(7) 0.0200(7) 0.0215(7) -0.0033(6) -0.0014(5) -0.0094(5)
C7 0.0196(7) 0.0182(7) 0.0248(7) -0.0026(6) -0.0027(5) -0.0093(6)
C8 0.0240(7) 0.0186(7) 0.0248(7) -0.0060(6) -0.0017(6) -0.0104(6)
C9 0.0232(7) 0.0216(7) 0.0353(8) -0.0111(6) -0.0030(6) -0.0075(6)
C10 0.0239(8) 0.0170(7) 0.0406(9) -0.0020(6) -0.0094(6) -0.0059(6)
C11 0.0326(9) 0.0245(8) 0.0397(10) 0.0087(7) 0.0017(7) -0.0091(7)
C12 0.0251(8) 0.0243(8) 0.0366(9) 0.0022(7) 0.0056(7) -0.0071(6)
C13 0.0204(7) 0.0171(6) 0.0170(6) -0.0029(5) -0.0010(5) -0.0087(5)
C14 0.0190(7) 0.0202(7) 0.0171(7) -0.0026(5) -0.0011(5) -0.0080(5)
C15 0.0227(7) 0.0216(7) 0.0202(7) -0.0047(6) 0.0000(5) -0.0086(6)
C16 0.0286(8) 0.0321(8) 0.0247(7) -0.0129(6) 0.0030(6) -0.0126(6)
C17 0.0325(9) 0.0411(9) 0.0180(7) -0.0089(7) -0.0016(6) -0.0114(7)
C18 0.0413(10) 0.0292(8) 0.0185(7) 0.0006(6) -0.0036(6) -0.0052(7)
C19 0.0357(8) 0.0202(7) 0.0206(7) -0.0029(6) -0.0007(6) -0.0071(6)
C20 0.0271(7) 0.0209(7) 0.0168(6) -0.0065(5) 0.0017(5) -0.0077(6)
C21 0.0271(8) 0.0281(8) 0.0202(7) -0.0076(6) 0.0002(6) -0.0093(6)
C22 0.0375(9) 0.0253(8) 0.0217(7) -0.0056(6) -0.0051(6) -0.0051(7)
C23 0.0506(10) 0.0265(8) 0.0204(7) -0.0071(6) -0.0006(7) -0.0174(7)
C24 0.0413(10) 0.0385(9) 0.0277(8) -0.0082(7) 0.0041(7) -0.0250(8)
C25 0.0276(8) 0.0318(8) 0.0255(8) -0.0061(6) 0.0010(6) -0.0113(7)
C26 0.0780(15) 0.0312(9) 0.0320(9) -0.0019(8) -0.0048(9) -0.0276(10)
C27 0.0305(8) 0.0229(8) 0.0278(8) -0.0056(6) -0.0082(6) -0.0034(6)
loop_
_atom_type_symbol
_atom_type_description
_atom_type_scat_dispersion_real
_atom_type_scat_dispersion_imag
_atom_type_scat_source
C C 0.0181 0.0091 'International Tables Vol C Tables 4.2.6.8 and 6.1.1.4'
H H 0.0000 0.0000 'International Tables Vol C Tables 4.2.6.8 and 6.1.1.4'
Cl Cl 0.3639 0.7018 'International Tables Vol C Tables 4.2.6.8 and 6.1.1.4'
N N 0.0311 0.0180 'International Tables Vol C Tables 4.2.6.8 and 6.1.1.4'
O O 0.0492 0.0322 'International Tables Vol C Tables 4.2.6.8 and 6.1.1.4'
S S 0.3331 0.5567 'International Tables Vol C Tables 4.2.6.8 and 6.1.1.4'
loop_
_geom_angle_atom_site_label_1
_geom_angle_atom_site_label_2
_geom_angle_atom_site_label_3
_geom_angle
_geom_angle_site_symmetry_1
_geom_angle_site_symmetry_3
_geom_angle_publ_flag
O1 S1 N1 103.93(6) . . ?
O1 S1 C20 108.74(7) . . ?
O2 S1 O1 119.24(7) . . ?
O2 S1 N1 109.17(6) . . ?
O2 S1 C20 110.24(7) . . ?
N1 S1 C20 104.36(6) . . ?
C1 N1 S1 116.39(9) . . ?
C5 N1 S1 117.72(9) . . ?
C5 N1 C1 124.76(12) . . ?
C4 N2 H2 116.0(13) . . ?
C6 N2 C4 118.71(12) . . ?
C6 N2 H2 117.3(13) . . ?
N1 C1 H1A 109.6 . . ?
N1 C1 H1B 109.6 . . ?
N1 C1 C2 110.36(12) . . ?
H1A C1 H1B 108.1 . . ?
C2 C1 H1A 109.6 . . ?
C2 C1 H1B 109.6 . . ?
C1 C2 C3 113.50(12) . . ?
C27 C2 C1 121.40(14) . . ?
C27 C2 C3 125.10(14) . . ?
C2 C3 H3A 110.0 . . ?
C2 C3 H3B 110.0 . . ?
C2 C3 C4 108.47(11) . . ?
H3A C3 H3B 108.4 . . ?
C4 C3 H3A 110.0 . . ?
C4 C3 H3B 110.0 . . ?
N2 C4 C3 111.43(11) . . ?
N2 C4 C5 106.82(11) . . ?
N2 C4 C13 108.66(11) . . ?
C3 C4 C5 112.44(11) . . ?
C3 C4 C13 111.91(11) . . ?
C5 C4 C13 105.24(10) . . ?
O3 C5 N1 120.74(13) . . ?
O3 C5 C4 119.97(12) . . ?
N1 C5 C4 119.21(12) . . ?
O4 C6 N2 121.73(13) . . ?
O4 C6 C7 121.14(13) . . ?
N2 C6 C7 117.13(12) . . ?
C8 C7 C6 124.22(13) . . ?
C12 C7 C6 116.47(14) . . ?
C12 C7 C8 119.31(14) . . ?
C7 C8 H8 119.8 . . ?
C9 C8 C7 120.45(14) . . ?
C9 C8 H8 119.8 . . ?
C8 C9 H9 120.6 . . ?
C10 C9 C8 118.76(15) . . ?
C10 C9 H9 120.6 . . ?
C9 C10 Cl1 119.92(13) . . ?
C9 C10 C11 121.93(14) . . ?
C11 C10 Cl1 118.10(13) . . ?
C10 C11 H11 120.6 . . ?
C10 C11 C12 118.89(15) . . ?
C12 C11 H11 120.6 . . ?
C7 C12 H12 119.7 . . ?
C11 C12 C7 120.59(16) . . ?
C11 C12 H12 119.7 . . ?
C4 C13 H13A 108.5 . . ?
C4 C13 H13B 108.5 . . ?
H13A C13 H13B 107.5 . . ?
C14 C13 C4 115.24(11) . . ?
C14 C13 H13A 108.5 . . ?
C14 C13 H13B 108.5 . . ?
C15 C14 C13 122.95(12) . . ?
C19 C14 C13 118.96(13) . . ?
C19 C14 C15 118.09(13) . . ?
C14 C15 H15 119.6 . . ?
C16 C15 C14 120.79(13) . . ?
C16 C15 H15 119.6 . . ?
C15 C16 H16 119.7 . . ?
C15 C16 C17 120.53(15) . . ?
C17 C16 H16 119.7 . . ?
C16 C17 H17 120.5 . . ?
C18 C17 C16 119.06(14) . . ?
C18 C17 H17 120.5 . . ?
C17 C18 H18 119.8 . . ?
C17 C18 C19 120.41(15) . . ?
C19 C18 H18 119.8 . . ?
C14 C19 H19 119.4 . . ?
C18 C19 C14 121.11(15) . . ?
C18 C19 H19 119.4 . . ?
C21 C20 S1 120.79(12) . . ?
C21 C20 C25 120.95(14) . . ?
C25 C20 S1 118.26(11) . . ?
C20 C21 H21 120.5 . . ?
C20 C21 C22 118.95(15) . . ?
C22 C21 H21 120.5 . . ?
C21 C22 H22 119.4 . . ?
C21 C22 C23 121.20(15) . . ?
C23 C22 H22 119.4 . . ?
C22 C23 C24 118.72(15) . . ?
C22 C23 C26 121.07(16) . . ?
C24 C23 C26 120.22(17) . . ?
C23 C24 H24 119.5 . . ?
C25 C24 C23 120.98(16) . . ?
C25 C24 H24 119.5 . . ?
C20 C25 H25 120.4 . . ?
C24 C25 C20 119.21(15) . . ?
C24 C25 H25 120.4 . . ?
C23 C26 H26A 109.5 . . ?
C23 C26 H26B 109.5 . . ?
C23 C26 H26C 109.5 . . ?
H26A C26 H26B 109.5 . . ?
H26A C26 H26C 109.5 . . ?
H26B C26 H26C 109.5 . . ?
C2 C27 H27A 121.2(12) . . ?
C2 C27 H27B 119.1(13) . . ?
H27A C27 H27B 119.6(17) . . ?
loop_
_geom_bond_atom_site_label_1
_geom_bond_atom_site_label_2
_geom_bond_distance
_geom_bond_site_symmetry_2
_geom_bond_publ_flag
Cl1 C10 1.7426(15) . ?
S1 O1 1.4331(11) . ?
S1 O2 1.4273(11) . ?
S1 N1 1.7013(12) . ?
S1 C20 1.7581(14) . ?
O3 C5 1.2224(17) . ?
O4 C6 1.2252(18) . ?
N1 C1 1.4934(18) . ?
N1 C5 1.3775(18) . ?
N2 C4 1.4639(17) . ?
N2 C6 1.3653(18) . ?
N2 H2 0.88(2) . ?
C1 H1A 0.9900 . ?
C1 H1B 0.9900 . ?
C1 C2 1.497(2) . ?
C2 C3 1.497(2) . ?
C2 C27 1.325(2) . ?
C3 H3A 0.9900 . ?
C3 H3B 0.9900 . ?
C3 C4 1.5358(18) . ?
C4 C5 1.5483(19) . ?
C4 C13 1.5563(18) . ?
C6 C7 1.4992(19) . ?
C7 C8 1.394(2) . ?
C7 C12 1.393(2) . ?
C8 H8 0.9500 . ?
C8 C9 1.391(2) . ?
C9 H9 0.9500 . ?
C9 C10 1.378(2) . ?
C10 C11 1.383(3) . ?
C11 H11 0.9500 . ?
C11 C12 1.384(2) . ?
C12 H12 0.9500 . ?
C13 H13A 0.9900 . ?
C13 H13B 0.9900 . ?
C13 C14 1.5121(19) . ?
C14 C15 1.398(2) . ?
C14 C19 1.392(2) . ?
C15 H15 0.9500 . ?
C15 C16 1.388(2) . ?
C16 H16 0.9500 . ?
C16 C17 1.389(2) . ?
C17 H17 0.9500 . ?
C17 C18 1.387(3) . ?
C18 H18 0.9500 . ?
C18 C19 1.387(2) . ?
C19 H19 0.9500 . ?
C20 C21 1.385(2) . ?
C20 C25 1.390(2) . ?
C21 H21 0.9500 . ?
C21 C22 1.387(2) . ?
C22 H22 0.9500 . ?
C22 C23 1.390(3) . ?
C23 C24 1.391(3) . ?
C23 C26 1.511(2) . ?
C24 H24 0.9500 . ?
C24 C25 1.383(2) . ?
C25 H25 0.9500 . ?
C26 H26A 0.9800 . ?
C26 H26B 0.9800 . ?
C26 H26C 0.9800 . ?
C27 H27A 0.96(2) . ?
C27 H27B 0.93(2) . ?
loop_
_geom_torsion_atom_site_label_1
_geom_torsion_atom_site_label_2
_geom_torsion_atom_site_label_3
_geom_torsion_atom_site_label_4
_geom_torsion
_geom_torsion_site_symmetry_1
_geom_torsion_site_symmetry_2
_geom_torsion_site_symmetry_3
_geom_torsion_site_symmetry_4
_geom_torsion_publ_flag
Cl1 C10 C11 C12 -176.01(14) . . . . ?
S1 N1 C1 C2 172.82(10) . . . . ?
S1 N1 C5 O3 -9.18(17) . . . . ?
S1 N1 C5 C4 174.12(9) . . . . ?
S1 C20 C21 C22 -179.26(11) . . . . ?
S1 C20 C25 C24 179.83(12) . . . . ?
O1 S1 N1 C1 -6.14(12) . . . . ?
O1 S1 N1 C5 -174.53(10) . . . . ?
O1 S1 C20 C21 -153.62(12) . . . . ?
O1 S1 C20 C25 27.08(14) . . . . ?
O2 S1 N1 C1 -134.38(10) . . . . ?
O2 S1 N1 C5 57.22(12) . . . . ?
O2 S1 C20 C21 -21.18(14) . . . . ?
O2 S1 C20 C25 159.52(12) . . . . ?
O4 C6 C7 C8 171.45(14) . . . . ?
O4 C6 C7 C12 -9.4(2) . . . . ?
N1 S1 C20 C21 95.93(13) . . . . ?
N1 S1 C20 C25 -83.37(13) . . . . ?
N1 C1 C2 C3 48.99(16) . . . . ?
N1 C1 C2 C27 -131.40(15) . . . . ?
N2 C4 C5 O3 39.74(16) . . . . ?
N2 C4 C5 N1 -143.53(12) . . . . ?
N2 C4 C13 C14 81.22(14) . . . . ?
N2 C6 C7 C8 -9.0(2) . . . . ?
N2 C6 C7 C12 170.14(14) . . . . ?
C1 N1 C5 O3 -176.51(12) . . . . ?
C1 N1 C5 C4 6.79(19) . . . . ?
C1 C2 C3 C4 -64.55(15) . . . . ?
C2 C3 C4 N2 167.63(11) . . . . ?
C2 C3 C4 C5 47.74(15) . . . . ?
C2 C3 C4 C13 -70.47(14) . . . . ?
C3 C4 C5 O3 162.27(12) . . . . ?
C3 C4 C5 N1 -21.00(16) . . . . ?
C3 C4 C13 C14 -42.25(16) . . . . ?
C4 N2 C6 O4 8.7(2) . . . . ?
C4 N2 C6 C7 -170.91(12) . . . . ?
C4 C13 C14 C15 -55.21(18) . . . . ?
C4 C13 C14 C19 124.01(14) . . . . ?
C5 N1 C1 C2 -19.70(19) . . . . ?
C5 C4 C13 C14 -164.67(11) . . . . ?
C6 N2 C4 C3 -71.05(15) . . . . ?
C6 N2 C4 C5 52.12(15) . . . . ?
C6 N2 C4 C13 165.19(12) . . . . ?
C6 C7 C8 C9 179.92(13) . . . . ?
C6 C7 C12 C11 178.93(16) . . . . ?
C7 C8 C9 C10 1.4(2) . . . . ?
C8 C7 C12 C11 -1.9(3) . . . . ?
C8 C9 C10 Cl1 174.91(11) . . . . ?
C8 C9 C10 C11 -2.7(2) . . . . ?
C9 C10 C11 C12 1.7(3) . . . . ?
C10 C11 C12 C7 0.7(3) . . . . ?
C12 C7 C8 C9 0.8(2) . . . . ?
C13 C4 C5 O3 -75.65(15) . . . . ?
C13 C4 C5 N1 101.08(13) . . . . ?
C13 C14 C15 C16 178.58(13) . . . . ?
C13 C14 C19 C18 -178.63(15) . . . . ?
C14 C15 C16 C17 0.4(2) . . . . ?
C15 C14 C19 C18 0.6(2) . . . . ?
C15 C16 C17 C18 -0.1(2) . . . . ?
C16 C17 C18 C19 0.1(3) . . . . ?
C17 C18 C19 C14 -0.4(3) . . . . ?
C19 C14 C15 C16 -0.6(2) . . . . ?
C20 S1 N1 C1 107.77(11) . . . . ?
C20 S1 N1 C5 -60.63(11) . . . . ?
C20 C21 C22 C23 -0.4(2) . . . . ?
C21 C20 C25 C24 0.5(2) . . . . ?
C21 C22 C23 C24 0.2(2) . . . . ?
C21 C22 C23 C26 -179.84(15) . . . . ?
C22 C23 C24 C25 0.4(3) . . . . ?
C23 C24 C25 C20 -0.7(3) . . . . ?
C25 C20 C21 C22 0.0(2) . . . . ?
C26 C23 C24 C25 -179.60(16) . . . . ?
C27 C2 C3 C4 115.86(16) . . . . ?
