#------------------------------------------------------------------------------
#$Date: 2025-08-23 00:12:46 +0300 (Sat, 23 Aug 2025) $
#$Revision: 301866 $
#$URL: file:///home/coder/svn-repositories/cod/cif/7/23/48/7234810.cif $
#------------------------------------------------------------------------------
#
# This file is available in the Crystallography Open Database (COD),
# http://www.crystallography.net/
#
# All data on this site have been placed in the public domain by the
# contributors.
#
data_7234810
loop_
_publ_author_name
'Zhou, Hui'
'Zhang, Hui'
'Mu, Sen'
'Zhang, Wen-Zhen'
'Ren, Wei-Min'
'Lu, Xiaobing'
_publ_section_title
;
 Highly Regio- and Stereoselective Synthesis of Cyclic Carbonates from
 Biomass-derived Polyols via Organocatalytic Cascade Reaction
;
_journal_name_full               'Green Chemistry'
_journal_paper_doi               10.1039/C9GC03013A
_journal_year                    2019
_chemical_formula_moiety         'C9 H8 O9'
_chemical_formula_sum            'C9 H8 O9'
_chemical_formula_weight         260.15
_space_group_crystal_system      orthorhombic
_space_group_IT_number           19
_space_group_name_Hall           'P 2ac 2ab'
_space_group_name_H-M_alt        'P 21 21 21'
_symmetry_space_group_name_Hall  'P 2ac 2ab'
_symmetry_space_group_name_H-M   'P 21 21 21'
_atom_sites_solution_hydrogens   geom
_atom_sites_solution_primary     dual
_audit_creation_date             2019-08-06
_audit_creation_method
;
Olex2 1.2
(compiled 2018.05.29 svn.r3508 for OlexSys, GUI svn.r5506)
;
_audit_update_record
;
2019-08-11 deposited with the CCDC.    2019-10-28 downloaded from the CCDC.
;
_cell_angle_alpha                90
_cell_angle_beta                 90
_cell_angle_gamma                90
_cell_formula_units_Z            4
_cell_length_a                   5.709(4)
_cell_length_b                   12.143(8)
_cell_length_c                   14.775(9)
_cell_measurement_reflns_used    1113
_cell_measurement_temperature    100(2)
_cell_measurement_theta_max      20.686
_cell_measurement_theta_min      2.757
_cell_volume                     1024.3(12)
_computing_cell_refinement       'SAINT V8.32B (?, 2016)'
_computing_data_reduction        'SAINT V8.32B (?, 2016)'
_computing_molecular_graphics    'Olex2 (Dolomanov et al., 2009)'
_computing_publication_material  'Olex2 (Dolomanov et al., 2009)'
_computing_structure_refinement  'ShelXL (Sheldrick, 2015)'
_computing_structure_solution    'ShelXT (Sheldrick, 2015)'
_diffrn_ambient_temperature      100.15
_diffrn_measured_fraction_theta_full 0.999
_diffrn_measured_fraction_theta_max 0.999
_diffrn_measurement_device_type  'Bruker D8 Venture'
_diffrn_radiation_type           MoK\a
_diffrn_radiation_wavelength     0.71073
_diffrn_reflns_av_R_equivalents  0.0375
_diffrn_reflns_av_unetI/netI     0.0454
_diffrn_reflns_Laue_measured_fraction_full 0.999
_diffrn_reflns_Laue_measured_fraction_max 0.999
_diffrn_reflns_limit_h_max       7
_diffrn_reflns_limit_h_min       -7
_diffrn_reflns_limit_k_max       15
_diffrn_reflns_limit_k_min       -15
_diffrn_reflns_limit_l_max       19
_diffrn_reflns_limit_l_min       -11
_diffrn_reflns_number            6472
_diffrn_reflns_point_group_measured_fraction_full 0.999
_diffrn_reflns_point_group_measured_fraction_max 0.999
_diffrn_reflns_theta_full        25.242
_diffrn_reflns_theta_max         27.352
_diffrn_reflns_theta_min         2.171
_exptl_absorpt_coefficient_mu    0.157
_exptl_absorpt_correction_T_max  0.7456
_exptl_absorpt_correction_T_min  0.6570
_exptl_absorpt_correction_type   multi-scan
_exptl_absorpt_process_details
'SADABS-2012/1 (Bruker,2012) was used for absorption correction. wR2(int) was 0.0539 before and 0.0456 after correction. The Ratio of minimum to maximum transmission is 0.8812. The \l/2 correction factor is 0.0015.'
_exptl_crystal_colour            colourless
_exptl_crystal_colour_primary    colourless
_exptl_crystal_density_diffrn    1.687
_exptl_crystal_description       block
_exptl_crystal_F_000             536
_refine_diff_density_max         0.128
_refine_diff_density_min         -0.137
_refine_diff_density_rms         0.034
_refine_ls_abs_structure_details
;
 Refined as an inversion twin.
;
_refine_ls_abs_structure_Flack   -2(2)
_refine_ls_extinction_coef       0.018(3)
_refine_ls_extinction_expression Fc^*^=kFc[1+0.001xFc^2^\l^3^/sin(2\q)]^-1/4^
_refine_ls_extinction_method     'SHELXL-2018/3 (Sheldrick 2018)'
_refine_ls_goodness_of_fit_ref   0.989
_refine_ls_hydrogen_treatment    constr
_refine_ls_matrix_type           full
_refine_ls_number_parameters     165
_refine_ls_number_reflns         2326
_refine_ls_number_restraints     0
_refine_ls_restrained_S_all      0.989
_refine_ls_R_factor_all          0.0664
_refine_ls_R_factor_gt           0.0373
_refine_ls_shift/su_max          0.000
_refine_ls_shift/su_mean         0.000
_refine_ls_structure_factor_coef Fsqd
_refine_ls_weighting_details
'w=1/[\s^2^(Fo^2^)+(0.0397P)^2^] where P=(Fo^2^+2Fc^2^)/3'
_refine_ls_weighting_scheme      calc
_refine_ls_wR_factor_gt          0.0790
_refine_ls_wR_factor_ref         0.0900
_reflns_Friedel_coverage         0.695
_reflns_Friedel_fraction_full    1.000
_reflns_Friedel_fraction_max     0.999
_reflns_number_gt                1555
_reflns_number_total             2326
_reflns_threshold_expression     'I > 2\s(I)'
_cod_data_source_file            c9gc03013a2.cif
_cod_data_source_block           19aug1a_0m
_cod_database_code               7234810
_shelx_shelxl_version_number     2018/3
_shelx_space_group_comment
;
The symmetry employed for this shelxl refinement is uniquely defined
by the following loop, which should always be used as a source of
symmetry information in preference to the above space-group names.
They are only intended as comments.
;
_olex2_refinement_description
;
1. Twinned data refinement
 Scales: 3(2)
 -2(2)
2. Fixed Uiso
 At 1.2 times of:
  All C(H) groups, All C(H,H) groups
3.a Ternary CH refined with riding coordinates:
 C2(H2), C3(H3), C4(H4), C7(H7)
3.b Secondary CH2 refined with riding coordinates:
 C6(H6A,H6B), C9(H9A,H9B)
;
_shelx_res_file
;
TITL 19aug1a_0mP 21 21 21 R = 0.04
    19aug1a_0m.res
    created by SHELXL-2018/3 at 11:49:58 on 06-Aug-2019
CELL 0.71073 5.709 12.143 14.775 90 90 90
ZERR 4 0.004 0.008 0.009 0 0 0
LATT -1
SYMM 0.5-X,-Y,0.5+Z
SYMM -X,0.5+Y,0.5-Z
SYMM 0.5+X,0.5-Y,-Z
SFAC C H O
UNIT 36 32 36

L.S. 5
PLAN  -20
TEMP -173
BOND $H
CONF
fmap 2
acta
TWIN -1 0 0 0 -1 0 0 0 -1 2
REM <olex2.extras>
REM <HklSrc "%.\\19aug1a_0m.hkl">
REM </olex2.extras>

WGHT    0.039700
EXTI    0.017929
BASF  -1.79127
FVAR       0.62610
O1    3    0.233734    0.478266    0.623318    11.00000    0.03648    0.04317 =
         0.06141   -0.00345   -0.00478    0.00008
O2    3    0.492763    0.346690    0.648198    11.00000    0.05215    0.04810 =
         0.06060    0.02288    0.00127    0.00568
O3    3    0.735892    0.663291    0.632834    11.00000    0.04453    0.04626 =
         0.06320    0.00202    0.00005   -0.00846
O4    3    0.488145    0.801223    0.623126    11.00000    0.07361    0.04683 =
         0.07734    0.01514    0.00900    0.00579
O5    3    0.854916    0.822459    0.572754    11.00000    0.08789    0.07431 =
         0.06703    0.01785    0.01479   -0.02252
O6    3    0.467394    0.372599    0.455390    11.00000    0.05295    0.06323 =
         0.05778   -0.01850    0.00781   -0.01636
O7    3    0.700602    0.469017    0.365902    11.00000    0.05414    0.07617 =
         0.05735    0.00218    0.00619   -0.01027
O8    3    0.337503    0.424518    0.320062    11.00000    0.07069    0.09888 =
         0.07343   -0.02761   -0.01881   -0.00047
O9    3    0.116021    0.317526    0.682690    11.00000    0.06343    0.07024 =
         0.08792    0.00806    0.01208   -0.02394
C1    1    0.267079    0.375647    0.654621    11.00000    0.05056    0.05159 =
         0.04855    0.00245   -0.00040   -0.00489
C2    1    0.622983    0.429435    0.598946    11.00000    0.03989    0.04042 =
         0.04817    0.00999   -0.00241    0.00165
AFIX  13
H2    2    0.769560    0.448855    0.632388    11.00000   -1.20000
AFIX   0
C3    1    0.454426    0.527122    0.598675    11.00000    0.03735    0.03775 =
         0.03393    0.00237   -0.00347    0.00150
AFIX  13
H3    2    0.443694    0.558471    0.536227    11.00000   -1.20000
AFIX   0
C4    1    0.517612    0.617463    0.665116    11.00000    0.04163    0.04359 =
         0.03535    0.00138   -0.00026   -0.00525
AFIX  13
H4    2    0.535958    0.587106    0.727631    11.00000   -1.20000
AFIX   0
C5    1    0.703865    0.767755    0.606462    11.00000    0.06410    0.05146 =
         0.03936    0.00430    0.00236   -0.00671
C6    1    0.351207    0.715965    0.664830    11.00000    0.05166    0.04468 =
         0.05354   -0.00965    0.00405   -0.00284
AFIX  23
H6A   2    0.208404    0.700034    0.629143    11.00000   -1.20000
H6B   2    0.305283    0.736630    0.727171    11.00000   -1.20000
AFIX   0
C7    1    0.681964    0.384008    0.506999    11.00000    0.04638    0.04448 =
         0.06235   -0.00497    0.00768    0.00651
AFIX  13
H7    2    0.759703    0.310629    0.513447    11.00000   -1.20000
AFIX   0
C8    1    0.488732    0.422536    0.374286    11.00000    0.05677    0.05403 =
         0.05507   -0.01893    0.00749   -0.00040
C9    1    0.831302    0.459182    0.447904    11.00000    0.04415    0.08266 =
         0.05468   -0.00237    0.00717   -0.00790
AFIX  23
H9A   2    0.852969    0.531995    0.476861    11.00000   -1.20000
H9B   2    0.986946    0.426073    0.436397    11.00000   -1.20000
AFIX   0
HKLF 4




REM  19aug1a_0mP 21 21 21 R = 0.04
REM wR2 = 0.0900, GooF = S = 0.989, Restrained GooF = 0.989 for all data
REM R1 = 0.0373 for 1555 Fo > 4sig(Fo) and 0.0664 for all 2326 data
REM 165 parameters refined using 0 restraints

END

WGHT      0.0398      0.0000

REM Highest difference peak  0.128,  deepest hole -0.137,  1-sigma level  0.034
Q1    1   0.3219  0.3753  0.3698  11.00000  0.05    0.13
Q2    1   0.4269  0.6665  0.6645  11.00000  0.05    0.12
Q3    1   0.1343  0.4637  0.3308  11.00000  0.05    0.11
Q4    1   0.4422  0.2787  0.3419  11.00000  0.05    0.11
Q5    1   0.9740  0.3535  0.4012  11.00000  0.05    0.11
Q6    1   0.4928  0.2974  0.6577  11.00000  0.05    0.10
Q7    1   0.4117  0.5379  0.3509  11.00000  0.05    0.10
Q8    1   0.7262  0.4337  0.6142  11.00000  0.05    0.10
Q9    1   0.4864  0.3766  0.4195  11.00000  0.05    0.10
Q10   1   0.4664  0.3952  0.4410  11.00000  0.05    0.10
Q11   1   0.5789  0.4803  0.5923  11.00000  0.05    0.10
Q12   1   0.5078  0.4345  0.2978  11.00000  0.05    0.10
Q13   1   0.3269  0.5061  0.5987  11.00000  0.05    0.10
Q14   1   1.0119  0.7794  0.6383  11.00000  0.05    0.10
Q15   1   0.0071  0.2987  0.7590  11.00000  0.05    0.10
Q16   1   0.9781  0.4119  0.3589  11.00000  0.05    0.09
Q17   1   0.5469  0.3398  0.4811  11.00000  0.05    0.09
Q18   1   0.4454  0.7447  0.5502  11.00000  0.05    0.09
Q19   1   0.8542  0.8120  0.6069  11.00000  0.05    0.09
Q20   1   0.2552  0.4849  0.3791  11.00000  0.05    0.09
;
_shelx_res_checksum              92911
_shelx_hkl_file
;
  -1   0   0   -0.14    0.37
  -2   0   0  143.65    4.20
  -3   0   0   -0.15    0.44
   3   0   0    1.25    0.73
   3   0   0    1.53    1.15
   4   0   0  403.73   12.06
   4   0   0  412.14   11.29
  -4   0   0  405.98   10.92
   5   0   0   -0.37    1.41
   6   0   0   33.88    4.53
   7   0   0   -0.99    2.22
   0   1   0   -0.02    0.18
   0   1   0    0.09    0.27
   1   1   0   12.63    1.19
  -1  -1   0   13.70    0.90
  -1   1   0   13.95    1.00
   1   1   0   11.76    0.80
  -2   1   0  471.85   11.19
   2   1   0  473.71   11.27
  -2  -1   0  469.93   10.96
   2   1   0  452.97   11.53
   3   1   0   53.48    2.53
  -3   1   0   57.56    2.67
  -3  -1   0   53.56    2.42
   3   1   0   44.22    2.99
   4   1   0    0.18    1.17
  -4  -1   0    1.73    0.75
  -4   1   0   -0.51    0.61
   4  -1   0    0.75    1.14
   4   1   0    0.70    0.96
   5   1   0   68.62    5.65
   5  -1   0   58.59    3.75
   5  -1   0   59.38    4.99
  -5   1   0   48.30    3.48
   6  -1   0   42.29    5.00
   6   1   0   47.17    5.43
  -6   1   0   40.21    3.93
   7   1   0   -2.64    2.57
   7  -1   0    0.37    2.35
   0   2   0   95.52    3.10
   0   2   0  105.28    2.72
  -1  -2   0  810.81   17.60
   1   2   0  803.06   18.33
   2   2   0  162.02    5.48
  -2   2   0  163.82    4.99
   2   2   0  165.14    4.74
  -2  -2   0  173.79    4.68
  -3  -2   0  127.52    4.24
   3   2   0  120.48    5.24
   3   2   0  132.38    4.34
  -3   2   0  134.85    4.68
   4   2   0   14.50    2.52
   4  -2   0   19.23    2.43
  -4  -2   0   15.14    1.74
   4   2   0   13.97    1.73
  -4   2   0   11.71    1.70
   5  -2   0   65.27    4.38
  -5   2   0   57.21    3.77
   5   2   0   73.38    6.01
  -6   2   0    0.20    1.50
   6   2   0   -1.45    1.70
   6  -2   0   -0.20    1.80
   7   2   0    1.57    2.71
   7  -2   0    4.55    3.09
   0  -3   0   -0.72    0.50
   0   3   0   -0.24    0.81
   0   3   0   -1.01    0.45
   1   3   0  302.36    7.84
  -1  -3   0  301.17    7.37
   1   3   0  308.01    7.87
  -2   3   0  117.59    4.13
   2   3   0  111.14    4.40
  -2  -3   0  112.69    3.58
   2   3   0  113.02    3.75
   3   3   0  238.73    8.14
  -3  -3   0  249.89    6.85
  -3   3   0  243.96    7.36
   3   3   0  239.85    6.92
   4   3   0   17.73    2.94
  -4   3   0   23.63    2.51
   4   3   0   20.14    2.09
  -5   3   0  102.61    5.10
   5  -3   0   95.26    5.36
   5   3   0  105.53    6.18
  -6   3   0    1.28    1.79
   6  -3   0    1.04    2.12
   6   3   0    0.32    2.02
   7  -3   0    1.26    2.75
   7   3   0    0.61    2.64
   0   4   0  412.36   10.67
   0  -4   0  396.88    9.76
   0   4   0  386.82    9.32
  -1  -4   0   40.07    1.92
   1  -4   0   41.19    2.22
   1   4   0   40.19    2.25
  -1   4   0   43.91    2.51
   1   4   0   40.93    2.26
  -1   4   0   42.94    2.22
  -2  -4   0  559.33   13.17
   2   4   0  556.91   13.83
  -3   4   0  919.94   22.17
  -3  -4   0  940.44   21.30
   3   4   0  904.78   21.93
   3   4   0  941.12   22.90
  -4   4   0   48.83    3.35
   4   4   0   50.43    4.57
   5  -4   0   32.99    3.67
  -5   4   0   27.72    3.30
   5   4   0   22.98    3.79
   6   4   0    2.91    2.44
  -6   4   0    1.37    1.71
   6  -4   0    3.85    2.33
   7   4   0   -0.35    2.64
   0   5   0   -1.09    0.76
   0  -5   0   -0.04    0.64
   0   5   0   -0.26    0.49
   1  -5   0  243.47    6.97
   1   5   0  229.67    6.81
  -1  -5   0  235.44    6.50
  -1   5   0  238.00    7.56
   1   5   0  223.12    7.06
   2   5   0    0.93    0.87
  -2  -5   0    0.67    0.54
   2   5   0   -1.16    0.50
   3   5   0   42.75    2.58
  -3  -5   0   48.01    2.46
  -3   5   0   41.88    2.82
  -4   5   0   23.94    2.96
   4   5   0   15.15    2.84
  -5   5   0   10.84    2.39
   5   5   0   11.39    2.97
   5  -5   0   10.48    2.40
  -6   5   0    9.79    2.57
   6   5   0   15.39    3.68
   0   6   0  422.38   10.40
   0   6   0  423.76   11.97
   0  -6   0  421.01   11.00
  -1  -6   0  119.47    4.26
   1   6   0  118.79    4.50
   1   6   0  126.25    5.03
   1  -6   0  126.12    4.69
  -1   6   0  117.26    5.12
  -2  -6   0   10.42    1.40
   2   6   0   10.44    1.68
   2   6   0    9.67    1.71
  -2   6   0    8.90    1.52
   2  -6   0    7.02    1.51
   3   6   0   51.19    3.05
  -3  -6   0   46.07    2.55
  -3   6   0   47.74    3.32
   4   6   0   43.39    4.45
  -4   6   0   53.98    3.69
  -5   6   0    0.98    1.63
   5   6   0   -0.24    1.74
  -6   6   0   10.05    2.76
   6   6   0   10.75    3.28
   0  -7   0   -0.58    0.54
   0   7   0    1.18    1.26
   0   7   0    0.44    0.58
  -1   7   0   31.72    3.30
   1   7   0   33.48    3.07
   1   7   0   31.49    2.72
  -1  -7   0   34.31    2.22
   2  -7   0  208.32    7.33
   2   7   0  202.16    7.41
   2   7   0  203.91    7.19
  -2  -7   0  207.71    6.52
   3  -7   0   10.27    2.06
  -3   7   0    7.22    1.70
   3   7   0    8.78    1.78
   3   7   0   11.68    2.49
   4   7   0   14.94    3.03
  -4   7   0   16.43    2.56
  -5   7   0   18.80    3.17
   5   7   0   19.74    3.72
   6   7   0    9.60    3.24
  -6   7   0    6.11    2.50
   0  -8   0   46.49    2.93
   0   8   0   44.50    4.14
   1   8   0   30.06    3.36
  -1  -8   0   28.60    2.59
  -1   8   0   40.40    3.84
   2  -8   0    7.55    1.77
  -2  -8   0    7.38    1.44
   2   8   0    5.32    1.66
   3   8   0   20.45    3.07
   3  -8   0   20.13    2.83
   3   8   0   23.59    2.95
  -5   8   0    0.85    1.81
   5   8   0   -0.09    2.31
   5  -8   0   -1.43    1.66
   6  -8   0    0.00    2.20
   6   8   0    1.44    2.38
   0  -9   0   -0.56    0.92
   0   9   0    0.07    1.41
  -1  -9   0   91.80    4.25
   1  -9   0   93.48    4.76
   1   9   0   92.18    5.18
  -1   9   0   86.80    5.20
   2   9   0   11.03    2.32
   2  -9   0   10.54    2.37
   2   9   0   12.73    2.44
   3  -9   0   52.06    4.52
   3   9   0   57.98    5.15
   4   9   0    2.34    1.94
   4  -9   0    0.70    1.62
   5   9   0    1.63    2.15
   5  -9   0    2.65    1.98
   6   9   0    5.82    3.16
   6  -9   0    7.83    3.05
   0  10   0   -0.28    1.56
   0 -10   0   -1.12    0.92
  -1 -10   0    9.96    2.01
  -1  10   0   15.37    2.88
   1 -10   0   11.56    2.16
   1  10   0   13.52    2.71
   2  10   0    6.17    2.20
   2  10   0    7.18    2.39
   2 -10   0    5.81    2.01
  -2 -10   0    8.68    1.95
   3 -10   0   33.37    3.91
   3  10   0   34.84    4.37
  -3 -10   0   30.86    3.24
   4 -10   0    3.29    2.21
   4  10   0    2.48    2.28
   5 -10   0    1.66    2.01
   5  10   0   -1.01    2.14
   0  11   0   -0.44    1.62
   0 -11   0    0.09    1.36
  -1  11   0    1.20    1.64
   1  11   0    0.32    1.85
   1  11   0    0.66    1.53
  -1 -11   0   -0.56    1.28
   1 -11   0    0.32    0.96
   2  11   0   10.99    2.74
  -2 -11   0   15.94    2.66
   2  11   0   15.07    2.98
   2 -11   0   15.52    2.98
  -3 -11   0    1.57    1.69
   3  11   0    4.18    2.35
   3 -11   0    3.27    1.90
   4  11   0    6.99    2.88
   4 -11   0   10.56    2.87
   5  11   0    3.91    3.19
   5 -11   0    2.88    2.54
   0 -12   0   15.87    2.73
   0  12   0   11.79    3.04
   1  12   0   36.13    4.59
  -1 -12   0   37.32    3.94
   1  12   0   43.84    4.07
  -2 -12   0    3.29    1.81
   2  12   0   -0.09    2.06
   2 -12   0    0.06    1.71
   2  12   0    1.31    1.76
   3  12   0    0.20    2.24
   3 -12   0   -0.32    1.44
   4 -12   0   -0.39    2.12
   4  12   0    1.69    2.62
   0 -13   0    1.38    1.74
   0  13   0   -0.30    1.67
   1  13   0   -1.10    2.15
  -1 -13   0    1.51    1.72
   1 -13   0    0.28    1.50
  -2 -13   0    0.79    1.73
   2 -13   0    2.27    2.13
   2  13   0   -1.68    1.97
   2  13   0    1.24    2.53
   3 -13   0    1.00    2.24
   3  13   0    2.48    2.76
   4 -13   0    0.71    2.45
   4  13   0    0.95    3.09
   0  14   0   -2.46    1.60
   0 -14   0    0.51    1.71
   1 -14   0    0.48    1.81
  -1 -14   0    2.02    1.94
   1  14   0    1.14    2.45
  -2 -14   0    5.11    2.40
   2  14   0    1.06    2.63
   2 -14   0    4.46    2.37
   3 -14   0    0.36    2.18
   3  14   0   -0.50    2.45
   0 -15   0    1.26    1.97
  -1 -15   0   -1.02    1.98
   1  15   0    0.55    2.30
   1 -15   0   -0.37    1.91
   2 -15   0   -1.41    2.14
  -2 -15   0   -1.04    2.10
   1   0   1  435.36   10.42
  -1   0  -1  440.67    9.58
   1   0  -1  431.55    9.88
  -1   0   1  444.05   10.00
   2   0  -1   83.49    3.35
  -2   0  -1   84.37    2.72
  -2   0   1   84.23    3.03
   2   0   1   87.26    3.26
   3   0  -1  465.92   12.27
  -3   0  -1  463.40   11.30
   3   0   1  450.39   12.15
  -3   0   1  466.48   11.72
   4   0   1  120.12    5.00
  -4   0  -1  124.51    4.46
   4   0  -1  109.76    5.34
  -4   0   1  124.48    4.79
   4   0  -1  117.45    4.48
   4   0   1  120.56    5.55
   5   0   1   20.41    2.73
   5   0   1   26.12    3.62
   5   0  -1   20.95    3.23
  -5   0   1   20.39    2.65
  -6   0   1    0.45    1.50
   6   0   1    0.22    2.03
   6   0  -1   -1.00    1.75
   7   0   1    0.24    2.49
   7   0  -1    2.95    2.66
   0  -1   1    3.29    0.44
   0   1   1    3.05    0.38
   0   1   1    3.14    0.48
   1   1  -1 2478.08   54.20
   1   1  -1 2428.19   51.53
  -1   1   1 2592.22   54.35
  -1  -1  -1 2512.21   52.36
  -1   1  -1 2459.28   52.19
   1   1   1 2418.64   54.43
  -1  -1   1 2420.15   52.29
   1  -1  -1 2496.04   50.99
   2   1  -1  418.27    9.65
  -2  -1  -1  414.01    9.51
  -2   1   1  401.11   10.11
   2   1  -1  390.32   10.40
   2  -1  -1  398.77    9.95
   2   1   1  416.45   10.40
  -2   1  -1  425.67    9.86
  -2  -1   1  409.80    9.98
  -3   1   1   94.43    3.63
   3   1  -1   83.17    4.05
   3   1  -1   79.77    3.03
  -3  -1  -1   86.14    3.08
  -3  -1   1   85.38    3.42
   3  -1  -1   80.70    3.72
   3   1   1   84.35    3.55
  -3   1  -1   89.40    3.35
   3   1   1   80.83    4.02
   4   1  -1    1.13    1.33
   4   1  -1   -0.91    0.74
  -4   1   1   -1.05    0.55
  -4  -1  -1    1.02    0.67
   4  -1   1   -0.10    0.88
   4   1   1    0.43    1.25
  -4  -1   1   -0.50    0.61
   4   1   1    0.65    1.03
   4  -1  -1    1.38    1.31
  -4   1  -1   -0.33    0.56
   5  -1   1   40.34    4.25
   5  -1   1   39.74    3.69
   5   1  -1   31.93    3.88
  -5   1   1   34.22    3.33
   5   1   1   47.95    4.78
   5  -1  -1   35.88    3.98
   6   1  -1    4.20    2.44
   6  -1   1    4.81    2.34
  -6   1   1    3.47    1.87
   6   1   1    2.74    2.44
   6  -1  -1    2.46    2.33
  -6  -1   1    4.02    1.84
   7   1  -1    1.14    2.60
   7  -1   1    7.37    3.45
   7  -1  -1    1.51    2.66
   7   1   1    4.88    2.82
   0   2   1   10.48    1.10
   0   2   1    8.92    0.79
   0   2   1   10.68    0.71
   1   2  -1  203.98    4.94
  -1  -2  -1  196.95    4.68
  -1   2   1  190.37    5.54
   1   2  -1  208.71    5.90
   1   2   1  193.58    5.46
  -1  -2   1  196.23    5.11
  -1   2  -1  197.45    5.18
   1   2   1  193.43    5.32
   2   2  -1   14.72    0.98
  -2  -2  -1   16.48    1.03
   2   2  -1   14.74    1.82
  -2   2   1   15.70    1.52
  -2   2  -1   15.94    1.48
   2   2   1   19.97    1.73
  -2  -2   1   14.97    1.39
   2   2   1   16.50    1.77
  -3  -2  -1   25.28    1.53
   3   2  -1   21.83    2.51
   3   2  -1   25.34    1.52
  -3   2   1   23.19    2.19
  -3   2  -1   25.42    1.80
   3   2   1   22.77    2.56
   3  -2  -1   29.31    2.45
  -3  -2   1   29.87    1.92
   3   2   1   25.73    2.21
   4   2  -1   14.84    2.55
   4   2  -1   18.84    1.77
  -4   2   1   14.71    1.96
   4  -2  -1   20.92    2.54
   4   2   1   18.96    2.27
   4   2   1   14.52    2.51
  -4   2  -1   18.26    2.01
  -4  -2   1   14.36    1.80
   5  -2   1  174.10    7.22
   5  -2   1  189.58    7.71
   5   2  -1  170.37    7.86
  -5   2   1  167.39    6.84
   5   2   1  180.05    8.23
   5  -2  -1  175.34    7.40
  -5   2  -1  180.28    6.72
  -6   2   1    5.80    2.09
   6  -2   1   11.10    2.88
   6   2  -1    3.92    2.42
   6   2   1   15.55    3.46
  -6   2  -1    6.80    2.19
   6  -2  -1    8.86    2.73
   7  -2   1   -0.59    2.83
   7   2  -1    1.44    2.81
   7  -2  -1   -0.57    2.62
   7   2   1    1.15    2.53
   0  -3  -1 4993.08  106.19
   0   3  -1 5026.94  104.53
   0   3   1 4765.60  103.67
   0   3   1 5033.45  108.65
   0   3  -1 4969.46  109.85
  -1   3   1  184.00    5.60
  -1  -3  -1  181.35    4.59
   1  -3   1  173.24    5.12
   1   3   1  174.23    5.31
   1   3   1  183.93    5.29
  -1  -3   1  175.27    4.93
   2   3  -1  256.02    6.57
   2   3  -1  263.23    7.70
  -2  -3  -1  244.74    6.36
  -2   3  -1  254.46    7.13
  -2  -3   1  254.91    6.86
   2   3   1  259.39    7.27
  -3  -3  -1  108.81    3.61
  -3   3   1  109.94    4.39
   3   3  -1  114.28    3.61
   3   3  -1  108.35    4.99
  -3  -3   1  100.30    3.90
   3   3   1  104.61    4.86
   3   3   1  113.84    4.26
  -3   3  -1  108.55    4.22
  -4   3   1   12.35    1.92
   4   3  -1    9.96    2.32
  -4   3  -1   17.02    2.05
  -4  -3   1   14.32    1.78
   4   3   1   16.70    2.75
   4  -3  -1   14.27    2.20
   4   3   1   16.86    2.12
   5   3  -1   34.43    4.23
  -5   3   1   32.94    3.58
  -5   3  -1   34.16    3.34
   5  -3  -1   38.25    3.88
   5   3   1   37.90    4.57
  -6   3   1   12.72    2.73
   6  -3   1   11.58    3.09
   6   3  -1    7.61    2.95
   6   3   1    3.46    2.41
  -6   3  -1   12.51    2.53
   6  -3  -1    8.81    2.73
   7  -3   1   -0.29    2.39
   7   3  -1    0.02    2.47
   7   3   1   -0.18    2.57
   0  -4  -1 1717.37   35.99
   0   4   1 1661.10   37.92
   0   4   1 1635.97   34.73
   0   4  -1 1625.66   37.72
   0   4  -1 1646.61   35.21
   1  -4   1   27.43    1.88
   1   4  -1   33.31    2.09
   1   4  -1   31.08    1.95
  -1  -4  -1   29.18    1.53
  -1   4   1   33.55    2.02
   1   4   1   29.22    2.09
  -1  -4   1   30.00    1.77
   1   4   1   29.97    1.94
   2   4  -1  490.52   11.96
  -2  -4  -1  466.92   11.36
  -2  -4   1  477.77   11.87
  -2   4  -1  492.43   12.33
   2   4   1  504.53   12.81
   2   4   1  479.90   12.51
   3   4  -1   22.87    2.68
  -3  -4  -1   21.29    1.77
  -3   4   1   20.91    2.17
   3   4  -1   22.35    1.84
  -3   4  -1   17.85    2.00
  -3  -4   1   22.60    2.01
   3   4   1   17.88    2.45
  -4   4   1    0.72    1.12
   4   4  -1    0.29    1.44
   4  -4  -1    0.22    0.99
  -4   4  -1    0.27    0.80
   4   4   1    1.65    1.23
   4   4   1    2.38    1.74
   5   4  -1   19.47    3.56
  -5   4   1   20.65    2.95
  -5   4  -1   20.20    2.74
   5   4   1   13.18    2.85
   5  -4  -1   25.30    3.24
   6   4  -1   25.62    4.22
  -6   4   1   25.09    3.55
   6  -4   1   27.93    4.23
   6   4   1   22.54    4.09
  -6   4  -1   25.14    3.50
   7   4  -1    1.98    2.59
  -7   4   1    1.47    2.31
   7   4   1    0.19    2.69
   0   5  -1   49.94    2.97
   0  -5  -1   56.55    2.57
   0   5   1   52.63    3.12
   0   5   1   56.61    2.20
   1   5  -1  551.18   13.32
  -1  -5  -1  533.05   12.71
  -1   5   1  555.13   14.36
  -1   5   1  549.29   13.41
   1  -5   1  526.88   13.42
   1   5  -1  489.58   13.59
   1   5   1  549.87   14.06
  -1  -5   1  549.07   13.08
   1   5   1  524.11   13.00
   2  -5   1  460.73   12.25
  -2   5   1  474.22   12.44
   2   5  -1  475.17   12.01
  -2  -5  -1  464.66   11.28
  -2   5   1  466.84   13.06
   2   5   1  445.76   12.39
  -2  -5   1  468.27   11.68
   2   5   1  466.35   12.53
   3   5  -1   61.48    3.75
   3   5  -1   58.26    2.78
  -3  -5  -1   62.20    2.66
  -3  -5   1   54.83    2.82
   3   5   1   53.62    3.15
  -3   5  -1   55.97    3.20
  -4   5   1    8.67    1.99
   4   5  -1    8.54    2.22
   4   5   1    6.58    1.68
   4   5   1    5.89    2.03
  -4   5  -1    6.28    1.73
  -5   5   1   19.79    2.93
   5   5  -1   14.25    3.04
   5   5   1   20.62    3.87
  -5   5  -1   19.81    2.87
  -5  -5   1   17.41    2.40
   5  -5  -1   20.97    2.95
  -6   5   1   -0.64    1.73
   6   5  -1    0.35    2.01
   6  -5   1    3.81    2.41
   6   5   1    5.18    2.61
  -6   5  -1   -0.69    1.70
   0  -6  -1    3.30    0.85
   0   6   1    0.53    1.11
   0   6   1    2.88    0.74
   0   6  -1    4.96    1.38
  -1  -6  -1  177.39    5.33
   1   6  -1  165.22    5.72
   1  -6   1  178.84    5.92
  -1   6   1  177.63    6.49
   1   6  -1  166.58    5.97
  -1  -6   1  167.33    5.51
   1   6   1  167.42    5.55
   1   6   1  165.60    6.18
   2  -6   1   71.72    3.63
   2   6  -1   62.63    3.25
   2   6  -1   71.39    3.78
  -2   6   1   58.89    3.34
  -2  -6  -1   69.03    2.90
   2   6   1   72.45    3.70
   2   6   1   63.49    3.49
  -2  -6   1   70.21    3.18
   3   6  -1  132.75    4.76
   3  -6   1  127.86    5.45
  -3   6   1  118.52    5.40
   3   6  -1  120.69    5.86
   3   6   1  124.84    5.94
   3   6   1  119.09    5.13
  -3  -6   1  132.28    4.82
  -3   6  -1  130.50    5.41
  -4   6   1    5.93    1.88
   4   6  -1    5.09    2.05
   4   6   1    3.81    1.70
   4   6   1    2.78    1.88
  -4   6  -1    2.12    1.32
  -5   6   1   17.08    2.87
   5   6  -1   10.29    2.86
  -5   6  -1   17.52    2.88
   5   6   1   13.99    3.19
  -6   6   1    0.58    2.08
   6   6  -1    0.34    2.24
   6   6   1   -1.74    2.02
  -6   6  -1   -0.20    1.92
   0   7   1   49.27    3.40
   0  -7  -1   50.88    2.82
   0   7  -1   47.40    3.89
   1   7  -1  290.71    8.79
   1  -7   1  305.08    9.05
  -1   7   1  296.40    9.89
  -1  -7  -1  288.05    8.30
   1   7  -1  306.61    9.40
  -1  -7   1  296.30    8.63
   1   7   1  309.58    9.70
  -2   7   1   56.52    3.41
   2   7  -1   58.06    3.35
   2   7  -1   55.44    3.63
  -2  -7  -1   61.03    2.92
   2  -7   1   58.89    3.51
   2   7   1   54.81    3.49
  -2  -7   1   54.72    2.99
   2  -7  -1   57.36    3.40
  -3   7   1   44.47    3.94
   3   7  -1   42.33    4.15
   3  -7   1   43.81    3.68
   3   7   1   41.12    3.97
   3   7   1   46.03    3.29
  -4   7   1    0.87    1.39
   4  -7   1   -0.68    1.14
   4   7  -1   -0.02    1.59
   4   7   1    0.48    1.26
  -5   7   1   25.27    3.44
   5  -7   1   24.61    3.41
   5   7  -1   17.19    3.50
  -5   7  -1   23.81    3.45
   5   7   1   15.05    3.33
   6   7  -1    0.90    2.24
   6  -7   1   -0.82    1.99
  -6   7   1   -0.21    1.95
   6   7   1   -0.37    2.30
   0   8   1   20.16    2.98
   0  -8   1   20.74    2.33
   0   8  -1   23.12    2.93
   0  -8  -1   20.80    2.34
   1   8  -1   48.43    3.50
  -1   8   1   47.24    4.33
  -1  -8  -1   49.17    2.80
   1  -8   1   47.43    3.11
   1   8   1   48.15    4.17
  -1  -8   1   49.37    2.92
  -2  -8  -1   36.65    2.48
   2   8  -1   40.63    3.48
   2  -8   1   37.54    3.59
  -2   8   1   42.18    4.32
   2  -8  -1   37.19    3.54
   2   8   1   39.90    3.61
  -2  -8   1   40.31    2.72
   3   8  -1   35.17    4.00
  -3   8   1   40.20    3.86
   3  -8   1   36.86    3.83
   3   8   1   36.94    3.95
   3  -8  -1   31.84    3.53
   3   8   1   34.96    3.55
   4   8  -1   17.09    3.21
   4  -8   1   19.78    3.01
   4   8   1   20.68    3.59
  -4  -8   1   20.00    2.55
   5   8  -1    3.75    2.59
  -5   8   1    1.10    1.94
   5  -8   1    0.90    1.78
   5   8   1    1.60    2.12
   6   8  -1    1.63    2.69
   6  -8   1    5.52    2.67
  -6   8   1    7.32    2.55
   6   8   1    0.40    2.76
   0  -9   1   57.60    3.62
   0  -9  -1   63.90    3.59
   0   9  -1   65.74    4.44
   0   9   1   64.17    4.36
   1  -9   1   94.38    4.84
  -1  -9  -1  102.60    4.38
   1   9  -1   83.08    4.98
  -1   9   1   90.40    5.36
   1  -9  -1   75.52    4.44
  -1  -9   1  101.22    4.65
   1   9   1   95.81    5.26
   2   9  -1   42.97    3.89
  -2   9   1   47.65    4.67
   2  -9   1   52.45    4.44
   2   9  -1   55.89    4.69
  -2  -9   1   47.37    3.31
   2  -9  -1   56.98    3.94
   2   9   1   37.33    3.83
   3  -9   1   31.71    3.60
   3   9  -1   37.37    4.22
   3  -9  -1   29.67    3.50
   3   9   1   33.14    3.95
  -3  -9   1   39.87    3.49
   3   9   1   32.23    3.55
   4   9  -1   23.96    3.85
   4  -9   1   23.03    3.41
   4   9   1   23.08    3.82
  -4  -9   1   26.36    3.08
   4  -9  -1   22.59    3.30
   5  -9   1   -0.30    1.55
   5   9  -1    0.10    1.94
   5  -9  -1   -0.07    1.99
   5   9   1   -1.33    1.52
   6   9  -1    0.72    2.58
   6  -9   1    3.74    2.49
   6   9   1    2.00    2.64
   6  -9  -1    2.27    2.42
   0 -10   1    4.86    1.62
   0 -10  -1    7.41    1.91
   0  10  -1    6.43    2.17
   0  10   1    8.65    2.37
  -1  10   1    5.47    1.99
   1  10  -1    4.97    2.06
   1 -10   1    2.38    1.70
  -1 -10  -1    4.16    1.43
   1  10   1    4.13    1.99
   1 -10  -1    5.40    1.81
  -1 -10   1    3.55    1.48
  -2 -10  -1   60.17    3.73
   2  10  -1   58.01    5.01
   2  10  -1   69.38    5.47
   2 -10   1   60.43    4.28
   2  10   1   69.67    4.48
   2 -10  -1   67.53    4.70
  -2 -10   1   67.97    4.11
   3 -10   1    2.52    1.73
   3  10  -1    1.37    1.88
  -3 -10  -1    0.26    1.28
   3  10   1    0.27    1.76
   3  10   1   -0.95    1.47
   3 -10  -1    1.16    1.50
  -3 -10   1    0.54    1.36
   4 -10   1   24.77    3.71
   4  10  -1   25.77    4.25
   4  10   1   18.12    3.49
   4 -10  -1   22.55    3.41
   5 -10   1    1.55    2.05
   5  10  -1    1.76    2.20
   5 -10  -1    2.66    2.10
   5  10   1    1.47    2.43
   0 -11   1    0.30    1.28
   0 -11  -1    0.99    1.27
   0  11  -1   -0.93    1.33
   0  11   1    2.66    1.97
   1  11  -1    9.27    2.79
  -1 -11  -1    8.12    1.99
   1 -11   1    8.94    2.25
  -1  11   1   10.13    2.69
   1  11  -1    6.62    1.99
  -1 -11   1    9.92    2.29
   1  11   1   10.78    2.64
   1 -11  -1   10.25    2.33
   2  11  -1  172.16    7.69
   2 -11   1  167.85    7.86
   2  11  -1  182.35    8.23
  -2 -11  -1  173.76    6.95
   2  11   1  185.52    8.41
   2  11   1  189.20    7.91
   2 -11  -1  164.99    7.66
  -2 -11   1  168.86    7.15
   3 -11   1   16.34    3.03
   3  11  -1   14.22    3.22
  -3 -11   1   20.81    3.04
   3  11   1   14.08    3.05
   3 -11  -1   10.34    2.87
   4  11  -1    4.86    2.75
   4 -11   1    7.75    2.54
   4 -11  -1    1.15    2.19
   4  11   1    6.10    3.12
   5 -11   1    2.63    2.60
   5  11  -1    0.17    2.87
   5  11   1   -1.23    2.81
   5 -11  -1    0.45    2.23
   0 -12   1   -0.76    1.48
   0  12   1    0.02    1.70
   0 -12  -1    2.47    1.66
  -1  12   1   10.10    2.95
  -1 -12  -1   18.83    2.84
   1  12  -1   22.01    3.69
   1 -12   1   15.60    2.95
   1  12   1   15.06    3.30
  -1 -12   1   16.65    2.83
   1 -12  -1   14.99    2.95
  -2 -12  -1   10.85    2.42
   2 -12   1    3.09    2.08
   2  12  -1   11.38    2.91
   2  12  -1    5.16    2.46
   2 -12  -1    3.77    1.99
  -2 -12   1    8.38    2.37
   2  12   1   13.95    3.26
   2  12   1    7.27    2.47
   3 -12   1   -1.87    1.72
   3  12  -1    1.78    2.39
   3  12   1   -0.14    2.02
   3 -12  -1    0.89    1.83
  -3 -12   1   -0.75    1.70
   4  12  -1    1.82    2.65
   4 -12   1    2.21    2.05
   4  12   1   -0.12    2.48
   4 -12  -1   -0.89    1.64
   0 -13   1   -1.12    1.26
   0  13   1    2.21    2.04
   0 -13  -1    0.28    1.57
   1 -13   1   15.41    2.92
  -1  13   1   17.61    3.67
   1  13  -1   22.32    3.88
  -1 -13  -1   12.06    2.61
  -1 -13   1   17.67    3.03
   1  13   1   19.10    3.81
   1 -13  -1   14.44    3.00
   2 -13   1   -0.49    1.97
  -2 -13  -1    3.23    2.02
   2  13  -1    0.45    2.19
   2  13  -1    1.30    2.54
   2  13   1    2.01    2.38
  -2 -13   1    2.37    1.83
   2 -13  -1    2.73    2.07
   3  13  -1    2.35    2.68
   3 -13   1    2.13    2.32
  -3 -13   1    1.71    2.08
   3 -13  -1    1.79    1.91
   3  13   1    3.09    2.47
   4 -13   1   -0.51    2.37
   4  13  -1   -2.26    2.83
   4  13   1   -1.55    2.69
   4 -13  -1    1.52    2.06
   0 -14  -1    1.98    1.88
   0  14   1   -1.60    1.90
   0 -14   1    2.43    1.91
  -1 -14  -1    3.89    2.23
   1 -14   1    0.84    1.38
  -1 -14   1   -0.95    1.60
   1  14   1    0.74    2.24
   1 -14  -1    0.12    1.82
   2  14  -1    1.34    2.66
   2 -14   1   -1.51    2.01
  -2 -14  -1    1.72    2.13
   2  14   1    0.34    2.57
   2 -14  -1    1.27    2.07
  -2 -14   1    0.77    1.92
   3 -14   1   11.14    3.35
   3  14  -1    6.05    3.34
   3 -14  -1    8.12    2.94
   0 -15   1    1.11    1.97
   0  15   1   -2.36    1.87
   0 -15  -1    1.02    2.10
   1 -15   1   -1.30    1.79
  -1 -15  -1    3.28    2.29
  -1 -15   1    2.20    2.31
   1 -15  -1    0.63    1.97
   1  15   1    0.03    2.58
   2 -15   1    0.91    2.45
   2 -15  -1    1.29    2.17
  -2 -15   1    3.74    2.57
   2  15   1    3.54    3.24
   0   0   2  228.83    6.01
   0   0   2  227.54    5.56
   1   0   2  108.36    3.51
   1   0   2  104.82    2.59
   1   0  -2  104.64    3.11
  -1   0   2  105.30    2.76
   2   0  -2   -0.13    0.85
  -2   0  -2    1.63    0.52
   2   0   2   -0.37    0.83
  -2   0   2    1.18    0.76
  -3   0  -2   24.79    1.50
   3   0   2   23.23    2.38
   3   0  -2   19.77    2.21
  -3   0   2   26.08    2.24
  -4   0  -2    0.28    0.60
  -4   0   2    0.00    0.56
   4   0  -2   -0.64    0.73
   4   0   2    0.45    1.05
   4   0  -2    2.28    1.38
   5   0   2    8.13    2.32
   5   0  -2   10.44    2.60
   5   0   2    9.88    2.26
  -5   0   2    9.55    1.93
   6   0  -2    5.60    2.44
  -6   0   2    4.45    1.93
   6   0   2    0.16    2.11
   7   0  -2   -0.01    2.35
   7   0   2    1.57    2.65
   0  -1   2  343.96    7.88
   0   1   2  344.85    7.71
  -1   1   2 1426.38   31.79
   1   1  -2 1422.63   30.38
  -1   1   2 1462.14   30.89
   1  -1   2 1374.58   30.42
   1   1   2 1447.53   32.26
   1  -1  -2 1434.90   29.74
  -2  -1  -2   13.47    0.84
   2   1  -2   14.42    0.71
  -2   1   2   13.99    1.52
   2   1  -2   16.36    1.82
  -2  -1   2   13.87    1.36
  -2   1  -2   16.77    1.30
   2  -1  -2   14.09    1.47
   2   1   2   14.74    1.68
  -3  -1  -2   10.34    1.08
  -3   1   2   13.80    1.73
   3   1  -2    8.92    1.76
   3   1  -2   13.47    1.17
   3  -1   2   13.96    2.01
   3   1   2    8.93    1.55
  -3   1  -2   12.75    1.40
  -3  -1   2   12.95    1.60
   3  -1  -2   14.06    1.93
   4   1  -2   80.66    4.54
   4  -1   2   80.69    4.31
  -4   1   2   85.06    3.99
   4   1  -2   86.74    3.24
   4  -1  -2   83.36    4.37
  -4  -1   2   86.96    3.93
  -4   1  -2   83.49    3.53
   4   1   2   71.78    4.46
   4   1   2   83.19    4.18
   5   1  -2   65.77    5.50
   5  -1   2   59.09    5.12
   5  -1   2   66.25    4.34
  -5   1   2   70.43    4.22
   5   1   2   51.70    5.08
   5   1   2   69.28    4.19
  -5  -1   2   59.40    3.83
   5  -1  -2   65.17    5.18
   6  -1   2   57.11    5.79
   6   1  -2   44.98    5.21
  -6   1   2   40.57    4.14
   6   1   2   44.10    5.34
  -6  -1   2   43.41    4.07
   6  -1  -2   39.03    4.68
   7  -1   2    0.43    2.70
   7   1  -2    0.21    2.25
   7   1   2   -1.91    2.64
   7  -1  -2    0.27    2.61
   0  -2   2  184.28    4.89
   0   2   2  189.07    4.68
   1  -2   2 1177.10   25.38
  -1   2   2 1173.77   26.62
   1   2  -2 1139.69   25.31
  -1  -2  -2 1133.74   24.53
  -1   2   2 1140.07   25.58
  -1  -2   2 1215.74   25.89
   1   2   2 1141.31   26.68
   1  -2  -2 1180.54   24.10
   2   2  -2  185.04    6.01
  -2  -2  -2  186.50    4.60
  -2   2   2  185.99    5.62
  -2   2  -2  192.16    5.33
   2  -2  -2  188.63    5.21
  -2  -2   2  184.50    5.53
   2   2   2  185.82    5.86
   3   2  -2  471.30   12.99
   3   2  -2  474.49   10.96
  -3   2   2  463.09   12.40
  -3  -2  -2  478.24   11.12
   3   2   2  467.46   12.72
  -3   2  -2  481.94   11.88
   3  -2  -2  465.09   12.05
   3   2   2  483.61   13.11
  -3  -2   2  482.40   12.15
   4   2  -2    9.98    2.21
  -4   2   2   19.01    2.37
  -4   2  -2   17.81    1.90
   4   2   2   17.22    2.30
  -4  -2   2   13.71    1.89
   4  -2  -2   15.78    2.23
   4   2   2   18.38    2.81
   5  -2   2   55.59    4.85
  -5   2   2   56.52    3.96
   5   2  -2   63.89    5.59
  -5  -2   2   54.96    3.63
   5   2   2   58.52    3.91
   5  -2  -2   53.27    4.72
   5   2   2   61.81    5.62
   6   2  -2    8.26    2.90
  -6   2   2    6.58    2.24
   6  -2   2   12.07    3.36
   6   2   2    8.16    2.98
  -6  -2   2    5.42    2.00
   6  -2  -2    7.33    2.47
   7   2  -2   -1.29    2.19
  -7   2   2    0.23    2.17
   7  -2   2    2.74    2.58
   7   2   2    1.38    2.60
   0  -3   2  360.23    8.92
   0   3   2  354.00    9.59
   0   3   2  375.90    8.14
   0   3   2  366.52    8.68
   1  -3   2   35.92    1.96
  -1  -3  -2   38.98    1.46
   1   3  -2   38.38    1.71
  -1   3   2   39.03    2.11
  -1   3   2   42.66    2.37
  -1  -3   2   37.85    1.94
   1   3   2   42.04    2.06
   1  -3  -2   40.50    1.07
   2  -3   2  334.89    8.85
   2   3  -2  350.54    9.64
  -2   3   2  338.08    9.35
  -2  -3  -2  335.78    7.89
   2  -3  -2  335.09    8.10
  -2   3  -2  327.51    8.77
   2   3   2  342.29    9.40
  -2  -3   2  343.94    8.88
   3   3  -2   87.09    4.44
   3   3  -2   92.79    2.74
  -3  -3  -2   91.90    3.05
  -3   3   2   90.43    4.06
   3   3   2   92.12    4.44
  -3  -3   2   92.64    3.76
  -3   3  -2  101.21    3.86
   3   3   2   86.82    3.96
   3  -3  -2   87.26    3.60
  -4   3   2   20.81    2.52
   4   3  -2   24.78    3.12
   4  -3  -2   25.84    2.75
   4   3   2   26.13    2.80
   4   3   2   32.24    3.65
  -4   3  -2   26.23    2.58
  -4  -3   2   30.66    2.77
   5   3  -2   14.94    3.08
  -5   3   2   12.23    2.32
  -5   3  -2   10.16    2.10
   5  -3  -2   11.13    2.44
  -5  -3   2   14.81    2.35
   5   3   2   14.65    3.08
  -6   3   2    2.58    1.99
   6   3  -2    4.67    2.48
   6  -3   2    0.30    1.93
   6  -3  -2    0.96    2.07
   6   3   2   -2.61    1.75
  -7   3   2    0.35    2.11
   7   3  -2   -0.44    2.47
   7  -3   2   -1.44    2.44
   7   3   2    0.07    2.65
   0   4   2    9.70    1.59
   0  -4   2    9.74    1.33
   0   4   2    8.67    0.88
   0  -4  -2    8.04    1.03
   1  -4   2  837.16   19.60
   1   4  -2  848.96   19.87
  -1   4   2  853.70   19.70
  -1  -4  -2  840.65   18.75
   1   4   2  848.82   20.62
  -1  -4   2  864.46   19.54
   1   4   2  855.94   19.26
  -2   4   2  146.43    5.43
   2   4  -2  157.40    5.64
  -2   4   2  148.33    5.20
  -2  -4  -2  145.40    4.09
   2  -4   2  147.84    5.09
   2   4  -2  145.16    4.36
   2   4   2  152.21    5.45
  -2  -4   2  149.27    4.88
   3   4  -2   25.71    2.97
  -3  -4  -2   25.32    1.53
   3   4  -2   34.53    1.63
  -3  -4   2   29.10    2.44
   3   4   2   31.35    2.80
  -3   4  -2   31.16    2.20
   3  -4  -2   27.18    2.18
  -4   4   2    5.92    1.72
   4   4  -2    3.64    1.69
   4  -4  -2    6.00    1.53
   4   4   2    4.93    1.95
   4   4   2    5.15    1.58
  -4   4  -2    5.34    1.30
   5   4  -2   10.07    2.77
  -5   4   2    8.58    2.08
  -5   4  -2    7.23    1.93
   5  -4  -2    8.92    2.16
   5   4   2    9.08    2.72
  -5  -4   2   10.95    2.12
   6  -4   2    0.01    1.79
   6  -4   2    1.88    2.17
  -6   4   2    4.23    2.18
   6   4  -2    1.42    2.19
   6   4   2    5.03    2.61
  -6   4  -2    4.07    2.08
   7  -4   2    1.55    2.56
  -7   4   2    4.68    2.85
   7   4  -2    3.16    2.89
   7   4   2    5.10    3.41
   0  -5  -2   24.23    1.63
   0   5   2   25.15    2.52
   0   5   2   24.73    1.35
   1   5  -2  231.57    7.07
  -1   5   2  226.13    6.90
   1   5  -2  233.71    6.91
   1  -5   2  231.27    6.92
  -1  -5  -2  235.53    6.21
  -1  -5   2  237.32    6.78
   1   5   2  230.65    6.72
   1   5   2  221.54    7.37
  -2  -5  -2   27.69    1.53
   2  -5   2   30.48    2.65
  -2   5   2   32.07    2.98
   2   5  -2   20.11    1.84
  -2   5   2   32.06    2.82
  -2  -5   2   28.78    1.96
   2   5   2   29.45    2.72
   2   5   2   25.33    2.52
  -3  -5  -2   32.67    1.80
   3  -5   2   30.80    2.84
   3   5  -2   37.13    3.49
  -3  -5   2   31.22    2.23
   3   5   2   34.76    3.11
   4   5  -2   25.06    3.39
  -4   5   2   40.60    3.70
  -4   5  -2   44.54    3.68
   4  -5  -2   39.77    2.74
   4   5   2   38.94    4.39
   5   5  -2   49.88    5.15
  -5   5   2   51.43    4.60
   5   5   2   42.37    4.98
  -5  -5   2   52.60    3.69
  -5   5  -2   48.72    4.21
   6   5  -2    2.60    2.40
  -6   5   2    1.61    1.89
   6   5   2   -2.10    1.80
  -6   5  -2    3.12    2.08
   0  -6  -2    1.55    0.80
   0   6   2    2.35    1.21
   1   6  -2  234.92    7.63
  -1   6   2  258.48    8.48
  -1  -6  -2  246.08    6.87
  -1   6   2  236.64    7.51
   1  -6   2  255.85    7.74
   1   6  -2  259.17    7.70
   1   6   2  243.78    8.16
   1   6   2  253.43    7.27
  -1  -6   2  259.32    7.50
  -2  -6  -2   81.57    3.16
  -2   6   2   76.80    4.01
  -2   6   2   87.79    4.46
   2   6  -2   83.88    3.65
   2  -6   2   87.29    4.12
   2   6   2   88.47    4.24
   2   6   2   88.14    4.28
  -2  -6   2   85.59    3.76
   3   6  -2   31.55    3.61
  -3   6   2   35.84    3.44
   3  -6   2   38.62    3.32
   3   6  -2   35.52    2.37
   3   6   2   45.87    3.24
  -3  -6   2   41.83    2.62
   3   6   2   34.48    3.63
  -4   6   2    3.41    1.57
   4  -6   2    2.24    1.51
   4   6  -2    3.33    1.82
   4   6   2    3.65    1.80
   4   6   2    4.06    1.79
   5   6  -2    8.26    2.63
  -5   6   2    8.70    2.28
   5  -6   2    8.65    2.14
  -5  -6   2   12.63    2.30
   5   6   2   12.03    3.21
   6   6  -2   -0.33    2.15
   6  -6   2    1.75    2.08
  -6   6   2    0.51    1.78
   6   6   2    3.36    2.77
   0   7   2  577.36   16.40
   0  -7  -2  602.09   14.87
  -1   7   2   33.17    3.29
   1   7  -2   32.55    2.94
   1   7  -2   33.65    3.03
   1  -7   2   23.24    2.48
  -1  -7  -2   29.54    1.99
   1   7   2   28.98    2.53
   1  -7  -2   32.42    2.89
  -1  -7   2   31.53    2.72
   1   7   2   24.37    2.81
  -2  -7  -2   25.39    1.80
  -2   7   2   23.23    2.65
   2   7  -2   23.24    2.46
   2  -7   2   23.26    2.73
   2   7  -2   23.31    2.79
   2   7   2   22.60    2.72
  -2  -7   2   22.39    2.34
   3   7  -2   11.92    2.39
  -3   7   2   16.34    2.47
   3  -7   2   16.87    2.58
   3   7  -2   10.19    1.76
   3   7   2   12.88    2.30
   3   7   2   11.45    2.40
   4   7  -2  206.84    8.80
  -4   7   2  161.76    7.41
   4  -7   2  190.21    7.53
   4   7   2  177.92    8.32
  -4  -7   2  199.39    7.16
   4   7   2  203.29    7.70
  -5   7   2   -0.60    1.72
   5  -7   2    3.46    1.99
   5   7  -2    0.09    1.82
   5   7   2    1.35    2.25
   6  -7   2   -2.47    1.88
  -6   7   2   -1.63    1.61
   6   7  -2    1.87    2.32
   6   7   2   -1.38    2.66
   0   8   2   30.18    3.52
   0  -8  -2   28.52    2.68
   1  -8   2   82.68    4.38
   1   8  -2   88.57    4.61
  -1  -8  -2   95.33    3.90
  -1   8   2   85.12    4.87
   1  -8  -2   88.26    4.27
   1   8   2   92.69    4.89
  -1  -8   2   92.46    4.21
  -2   8   2   37.49    3.90
   2  -8   2   33.33    3.34
   2   8  -2   40.36    3.85
   2   8  -2   38.55    3.43
  -2  -8   2   37.23    2.66
   2   8   2   40.98    3.88
   2  -8  -2   48.65    3.42
   3  -8   2   22.41    3.12
  -3   8   2   29.86    3.29
   3   8  -2   32.08    3.99
   3   8   2   22.56    3.27
   3   8   2   28.65    3.40
  -3  -8   2   25.78    2.86
   4  -8   2   44.75    4.23
  -4   8   2   31.50    3.69
   4   8  -2   36.47    4.50
   4   8   2   45.40    4.83
  -4  -8   2   40.91    3.68
   5  -8   2    4.75    2.18
   5   8  -2    4.03    2.37
  -5   8   2    5.38    2.17
   5   8   2    2.44    2.06
   6  -8   2    1.75    2.33
   6   8  -2    0.29    3.08
  -6   8   2   -0.29    1.79
   6   8   2    5.23    3.51
   0   9   2    4.76    1.81
   0  -9  -2    7.24    1.50
   1   9  -2   15.59    2.72
  -1  -9  -2   16.87    2.20
   1  -9   2   15.54    2.46
  -1   9   2   17.84    3.01
  -1  -9   2   19.38    2.54
   1  -9  -2   16.08    2.52
   1   9   2   12.03    2.63
   2   9  -2    6.13    2.05
   2  -9   2    6.74    1.77
  -2   9   2    8.85    2.38
   2   9  -2   11.44    2.34
   2   9   2    8.84    2.29
  -2  -9   2    9.38    1.85
   2  -9  -2    8.73    2.05
   3   9  -2   29.86    3.80
   3  -9   2   20.28    2.98
  -3  -9   2   26.02    2.96
   3  -9  -2   29.27    3.47
   3   9   2   38.79    4.01
   3   9   2   29.37    3.73
   4   9  -2    1.71    1.73
  -4   9   2    0.21    1.58
   4  -9   2    1.39    1.69
   4   9   2    1.22    1.90
  -4  -9   2    1.35    1.45
   5   9  -2    2.12    2.45
   5  -9   2    3.23    2.19
  -5   9   2   -0.18    1.45
   5   9   2    2.73    2.32
   0 -10   2    0.69    1.25
   0 -10  -2   -0.70    1.19
   0  10   2   -0.08    1.67
  -1 -10  -2   34.61    3.23
   1 -10   2   31.64    3.52
  -1  10   2   38.07    4.39
   1  10  -2   41.05    4.29
   1  10  -2   33.09    3.53
   1 -10  -2   32.00    3.45
   1  10   2   30.36    3.98
  -1 -10   2   30.73    3.30
  -2  10   2    0.74    1.75
   2  10  -2    2.06    1.59
   2 -10   2    3.57    1.76
   2  10  -2    2.92    1.79
   2 -10  -2    1.39    1.47
   2  10   2    2.21    1.83
  -2 -10   2    0.00    1.24
   2  10   2    0.45    1.47
   3 -10   2   14.60    2.88
   3  10  -2   13.37    2.83
  -3 -10   2    9.53    2.17
   3  10   2   11.66    2.79
   3  10   2    8.06    2.48
   3 -10  -2    9.72    2.55
   4  10  -2    1.38    2.16
   4 -10   2    1.83    2.14
  -4 -10   2    0.67    1.71
   4 -10  -2    1.63    1.77
   4  10   2    2.65    2.16
   5 -10   2    0.18    2.29
   5  10  -2    3.36    2.69
   5  10   2    3.75    2.71
   5 -10  -2    6.44    2.47
   0 -11   2    2.88    1.54
   0 -11  -2    3.00    1.54
   0  11   2    4.70    2.21
  -1 -11  -2  105.69    5.18
  -1  11   2  105.20    6.51
   1  11  -2  107.29    6.23
   1 -11   2  113.01    5.89
   1 -11  -2  110.62    5.82
  -1 -11   2  108.02    5.59
   1  11   2  110.62    6.49
  -2  11   2   18.02    3.45
   2  11  -2   14.42    2.84
  -2 -11  -2   16.55    2.53
   2 -11   2   10.47    2.53
   2  11  -2   15.47    2.96
   2 -11  -2    8.63    2.50
  -2 -11   2   13.18    2.60
   2  11   2   20.53    3.56
   2  11   2   17.81    3.19
   3 -11   2    5.55    2.18
   3  11  -2    1.07    2.36
   3  11   2    5.79    2.53
   3  11   2    6.53    2.56
   3 -11  -2    4.76    2.27
  -3 -11   2    6.54    2.05
   4 -11   2    2.08    1.88
   4  11  -2    1.52    2.36
   4  11   2    0.79    2.38
   4 -11  -2    2.36    2.05
   5  11  -2   -0.95    2.36
   5 -11   2    4.95    2.45
   5  11   2    3.35    2.88
   5 -11  -2    3.91    2.68
   0 -12  -2    3.93    1.92
   0 -12   2    3.51    1.73
   0  12   2    1.68    2.02
  -1 -12  -2   70.59    4.44
  -1  12   2   62.27    6.12
   1 -12   2   62.00    5.34
   1  12   2   70.09    6.40
   1 -12  -2   70.59    5.84
  -1 -12   2   55.76    4.86
   2 -12   2    1.72    1.95
  -2 -12  -2    3.40    1.80
   2  12  -2    6.24    2.54
   2  12  -2    5.06    2.45
  -2  12   2    0.52    2.26
   2  12   2    5.67    2.45
   2 -12  -2    4.27    2.00
   2  12   2    2.59    2.37
  -2 -12   2    8.39    2.29
   3 -12   2    9.05    2.66
   3  12  -2    7.31    2.62
  -3 -12   2    6.17    2.26
   3  12   2    8.02    2.83
   3  12   2    7.54    2.66
   3 -12  -2   10.21    2.81
   4  12  -2    2.29    2.72
   4 -12   2    4.33    2.63
   4 -12  -2    4.04    2.25
   4  12   2    0.78    2.48
   0 -13  -2    1.51    1.78
   0  13   2   -0.96    2.00
   0 -13   2    1.63    1.60
  -1  13   2    1.82    2.12
   1 -13   2    5.66    2.24
  -1 -13  -2    1.70    1.73
   1  13   2    3.48    2.34
  -1 -13   2    3.13    2.18
   1 -13  -2    3.05    2.04
   2 -13   2    1.11    1.79
   2  13  -2    0.35    2.12
   2 -13  -2    0.01    1.48
   2  13   2    1.78    2.58
  -2 -13   2   -0.01    1.54
   3  13  -2    9.12    3.39
   3 -13   2    6.76    2.55
  -3 -13   2    5.87    2.25
   3  13   2    3.85    2.91
   3 -13  -2    6.21    2.79
   4 -13   2    0.44    2.34
   4  13  -2    3.19    2.76
   4  13   2    4.98    3.31
   4 -13  -2    1.26    2.51
   0 -14   2   -1.27    1.57
   0  14   2    0.07    2.42
   0 -14  -2   -0.19    1.71
   1 -14   2    3.78    2.20
  -1 -14  -2    3.60    2.23
  -1  14   2    3.83    2.53
  -1 -14   2    6.27    2.25
   1 -14  -2    3.70    2.10
   1  14   2    3.73    2.62
   2 -14   2    1.08    2.16
   2  14   2   -0.88    2.52
  -2 -14   2    1.10    1.89
   2 -14  -2    0.17    1.74
   3 -14   2   -0.31    2.07
   3  14  -2   -0.48    2.67
   3 -14  -2    0.86    2.40
  -3 -14   2    0.18    2.02
   0 -15  -2    1.32    1.86
   0 -15   2    2.72    2.31
   0  15   2    1.40    2.10
  -1  15   2    0.73    2.44
   1 -15   2    0.86    2.01
  -1 -15  -2    1.88    2.33
  -1 -15   2   -0.20    2.03
   1 -15  -2    0.52    2.22
   1  15   2    0.62    2.42
   2 -15   2    7.04    2.88
  -2 -15   2    6.60    2.75
   2 -15  -2    5.47    2.67
   2  15   2    1.48    3.03
   0   0   3   -1.69    0.39
   0   0   3   -0.99    0.60
   1   0   3  284.79    6.27
  -1   0   3  278.66    6.75
   1   0   3  278.99    7.69
  -1   0   3  274.93    7.13
   1   0  -3  280.33    6.89
   2   0   3   59.82    3.14
   2   0  -3   62.46    2.84
  -2   0  -3   64.44    2.03
  -3   0  -3    1.72    0.55
   3   0   3   -0.24    0.96
  -3   0   3   -0.12    0.58
   3   0  -3    1.47    1.04
   4   0  -3    1.24    1.23
   4   0   3    3.53    1.54
  -4   0   3   -0.17    0.73
   4   0  -3    1.82    0.88
  -5   0   3    1.72    1.44
   5   0   3   -0.29    1.37
   5   0   3    1.30    1.66
   5   0  -3   -0.44    1.62
  -6   0   3    3.42    2.09
   6   0   3    0.76    2.01
   6   0  -3    3.23    2.04
   7   0  -3    2.68    2.96
   7   0   3   -0.71    2.38
   0   1   3  137.02    3.60
   0   1   3  139.21    4.24
   0  -1   3  134.77    3.76
   0  -1   3  140.85    4.08
  -1   1   3 1047.83   23.77
   1   1  -3 1055.28   22.89
  -1   1   3 1054.92   23.22
   1  -1   3 1061.59   22.63
   1  -1   3 1026.89   24.41
   1   1   3 1035.74   24.40
  -1  -1   3 1056.91   23.18
   1  -1  -3 1018.50   22.14
  -1  -1   3 1066.56   23.13
   2  -1   3   93.33    3.97
   2   1  -3   90.22    3.76
  -2   1   3   86.63    3.04
  -2  -1  -3   92.90    2.39
   2  -1   3   93.39    2.94
   2   1   3   82.53    3.79
  -2  -1   3   92.37    3.55
   2  -1  -3   93.60    3.31
  -3   1   3  160.68    5.64
   3   1  -3  158.97    4.02
  -3  -1  -3  166.23    4.40
   3  -1   3  165.12    6.16
   3   1  -3  150.18    5.80
  -3   1  -3  165.50    4.86
   3   1   3  155.79    5.91
  -3  -1   3  161.06    5.52
   3  -1  -3  148.92    5.50
   4   1  -3   36.65    3.67
   4  -1   3   42.61    3.85
  -4   1   3   39.69    2.81
   4   1   3   37.79    3.51
  -4  -1   3   41.59    3.38
   4  -1  -3   37.63    3.51
   5  -1   3   26.84    3.50
  -5   1   3   29.36    3.30
   5   1  -3   20.75    3.31
   5   1   3   22.22    3.46
   5   1   3   34.55    3.65
  -5  -1   3   26.81    3.13
   5  -1  -3   26.04    3.38
   6   1  -3    7.85    2.76
   6  -1   3    2.92    2.32
  -6   1   3    5.39    2.02
   6  -1  -3    8.89    2.81
   6   1   3    3.00    2.46
  -6  -1   3    4.07    2.05
   7  -1   3    1.58    2.47
  -7   1   3    0.34    2.12
   7   1  -3   -0.69    2.22
   7  -1  -3    3.12    2.75
   7   1   3    2.67    2.80
   0  -2   3    5.62    0.93
   0   2   3    6.72    0.90
  -1   2   3 1500.61   33.15
  -1  -2  -3 1533.66   31.82
  -1   2   3 1523.62   34.40
   1  -2   3 1542.65   32.85
   1   2  -3 1500.46   32.76
   1  -2  -3 1528.85   31.39
   1   2   3 1504.69   34.76
   2  -2   3   28.38    1.70
   2   2  -3   29.66    2.62
  -2   2   3   35.08    2.14
  -2   2   3   35.56    2.00
  -2  -2   3   37.13    2.11
   2  -2  -3   34.56    1.79
   2   2   3   30.41    2.59
  -3   2   3   57.77    3.16
   3   2  -3   50.19    3.30
  -3   2  -3   60.02    2.69
   3  -2  -3   53.82    2.87
  -3  -2   3   62.39    3.07
   3   2   3   65.96    3.52
   4  -2   3   55.27    3.88
  -4   2   3   46.62    3.28
   4   2  -3   55.19    3.86
   4  -2  -3   59.22    3.54
  -4  -2   3   52.70    3.15
   4   2   3   53.55    4.65
   4   2   3   45.25    3.32
  -5   2   3   42.73    4.04
   5   2  -3   50.19    4.95
   5  -2   3   45.49    4.49
  -5  -2   3   44.35    3.86
   5   2   3   38.84    3.84
   5   2   3   44.77    4.77
   5  -2  -3   49.06    4.44
   6  -2   3   -0.84    1.81
   6  -2   3   -0.40    2.02
   6   2  -3   -0.40    1.68
  -6   2   3   -1.10    1.56
   6   2   3    2.81    2.46
   6  -2  -3    3.70    2.27
  -6  -2   3   -0.18    2.23
   7  -2   3    1.11    2.95
   7   2  -3    2.86    2.84
  -7   2   3    2.39    2.31
   7   2   3    4.48    3.50
   0   3   3  841.44   20.23
   0   3   3  851.45   18.74
   0  -3   3  836.71   19.09
  -1  -3  -3  153.52    3.76
   1  -3   3  146.71    4.61
   1   3  -3  151.49    4.94
  -1   3   3  149.76    4.79
  -1   3   3  146.70    5.01
   1   3   3  145.39    5.18
  -2   3   3  269.28    7.94
   2  -3   3  273.92    7.50
   2   3  -3  278.58    8.31
  -2   3   3  276.96    7.94
  -2  -3   3  270.70    7.69
   2  -3  -3  283.52    6.81
   2   3   3  270.19    8.26
   3  -3   3  160.54    5.45
   3   3  -3  168.05    6.53
   3  -3  -3  162.76    5.30
  -3   3  -3  170.23    5.47
   3   3   3  168.20    6.19
  -3  -3   3  168.64    5.70
  -4   3   3   16.58    2.47
   4   3  -3   21.12    3.08
   4   3   3   17.76    2.87
  -4  -3   3   16.57    2.12
  -4   3  -3   14.83    1.89
   4   3   3   14.29    2.24
   4  -3  -3   11.99    2.06
   5  -3   3    8.25    2.44
   5   3  -3    8.87    2.48
  -5   3   3   11.17    2.32
   5   3   3    6.73    2.51
   5   3   3    8.13    2.22
  -5   3  -3    7.92    1.97
  -5  -3   3    7.98    1.95
   5  -3  -3    5.44    1.99
   6   3  -3    8.36    2.82
   6  -3   3    6.35    2.60
  -6   3   3    3.76    2.10
  -6  -3   3    4.07    1.94
   6   3   3    8.23    3.33
   7   3  -3    1.84    2.67
   7  -3   3   -0.40    2.85
  -7   3   3   -0.31    2.21
   7   3   3    0.49    2.83
   0   4   3  408.78    9.12
   0  -4   3  395.04   10.20
   0   4   3  415.10   11.12
   0   4   3  390.93    9.79
  -1   4   3  224.95    6.65
   1  -4   3  230.81    6.65
  -1  -4  -3  225.08    5.74
  -1   4   3  223.18    7.20
   1   4   3  240.10    6.48
   1   4   3  227.43    7.27
  -2  -4  -3  271.37    6.55
  -2   4   3  273.98    8.35
   2   4  -3  281.53    8.54
  -2   4   3  269.70    8.12
   2  -4   3  268.70    7.87
  -2  -4   3  278.79    7.86
   2  -4  -3  281.25    6.51
   2   4   3  270.75    8.15
   2   4   3  276.99    8.57
   3   4  -3   48.95    4.10
   3  -4   3   45.63    2.82
  -3  -4  -3   46.67    1.86
  -3  -4   3   50.17    2.88
   3   4   3   46.73    3.15
   3  -4  -3   44.93    2.45
   4   4  -3  137.73    6.62
  -4   4   3  138.66    6.12
   4  -4   3  132.41    5.43
  -4  -4   3  149.04    5.66
   4   4   3  139.60    6.03
   4   4   3  150.16    6.96
   4  -4  -3  138.17    5.38
   5   4  -3   14.19    3.00
  -5   4   3    8.79    2.35
   5   4   3   11.87    3.03
  -5   4  -3   11.47    2.25
  -5  -4   3   11.68    2.16
   6  -4   3   23.04    3.89
  -6   4   3   13.75    2.90
   6   4  -3   15.41    3.54
  -6  -4   3   15.39    2.69
   6   4   3   17.60    4.09
  -7   4   3    5.50    2.73
   7  -4   3    4.89    2.79
   7   4  -3    4.79    3.10
   7   4   3   -0.70    2.41
   0   5   3  195.32    5.14
   0  -5   3  211.64    6.28
   0   5   3  195.43    6.92
   0  -5  -3  207.80    5.91
  -1   5   3  187.56    5.98
  -1  -5  -3  177.68    5.04
   1  -5   3  175.47    5.86
   1   5   3  177.99    6.46
   1   5   3  190.13    5.70
  -2   5   3  105.45    4.53
  -2  -5  -3  107.24    3.32
  -2   5   3  113.69    4.81
   2   5  -3  104.21    4.78
   2  -5   3  108.56    4.42
   2   5   3  110.76    4.64
  -2  -5   3  112.23    4.31
   2  -5  -3  106.47    2.86
   2   5   3  107.65    4.77
   3   5  -3   73.35    4.36
  -3   5   3   66.40    3.76
   3  -5   3   56.92    3.36
   3  -5  -3   67.03    2.85
   3   5   3   74.24    4.19
  -3  -5   3   72.03    3.52
   4   5  -3   28.48    3.68
  -4   5   3   17.04    2.67
   4  -5   3   39.50    3.44
   4   5   3   47.51    4.68
   4   5   3   39.74    3.83
  -4  -5   3   32.67    3.01
   5   5  -3    2.17    1.98
  -5   5   3    0.55    1.43
   5  -5   3    0.07    1.34
  -5  -5   3    4.80    1.84
   5   5   3    0.77    1.95
   6  -5   3    0.97    1.83
   6  -5   3   -0.65    1.94
   6   5  -3    2.15    2.30
  -6   5   3    1.12    1.96
   6   5   3    1.72    2.45
   0   6   3   95.75    4.66
   0  -6   3  105.51    4.20
   0  -6  -3  105.06    3.93
   1   6  -3  101.57    4.33
  -1  -6  -3  102.77    3.60
   1  -6   3   98.98    4.27
  -1   6   3  102.71    4.30
   1   6   3   99.32    3.93
   1   6   3   92.94    4.68
  -1  -6   3  103.12    4.16
  -2  -6  -3  123.89    4.01
   2  -6   3  128.87    5.19
  -2   6   3  121.60    5.18
  -2   6   3  124.84    5.56
   2   6   3  128.68    5.21
   2   6   3  130.93    5.59
  -2  -6   3  133.71    4.98
   2  -6  -3  129.87    3.05
   3   6  -3  178.27    7.40
  -3   6   3  161.04    6.68
   3  -6   3  165.39    6.42
   3   6   3  177.28    7.23
  -3  -6   3  180.08    6.28
   3   6   3  174.12    6.93
   4   6  -3   35.43    4.23
  -4   6   3   32.50    3.54
   4  -6   3   31.28    3.24
   4   6   3   41.34    3.98
  -4  -6   3   36.00    3.27
   5   6  -3    2.56    2.05
  -5   6   3    3.78    1.98
   5  -6   3    2.14    1.76
  -5  -6   3    1.39    1.53
   5   6   3    1.83    2.12
  -6   6   3   -1.62    1.58
   6  -6   3    0.26    1.89
   6   6  -3    2.29    2.48
   6   6   3   -2.56    2.14
   0   7   3  231.94    8.43
   0  -7   3  251.04    7.77
   0  -7  -3  239.96    7.34
   1   7  -3  128.41    5.31
  -1   7   3  147.00    6.18
  -1  -7  -3  137.77    4.69
   1  -7   3  124.61    5.37
  -1   7   3  134.19    5.33
   1   7   3  146.83    5.06
  -1  -7   3  144.67    5.35
   1   7   3  131.24    5.96
   1  -7  -3  140.48    5.35
   2   7  -3    8.89    1.64
  -2  -7  -3    6.07    1.14
  -2   7   3    5.79    1.62
   2  -7   3    7.10    1.68
   2   7   3    5.75    1.70
  -2  -7   3    3.70    1.15
   3  -7   3   62.27    4.03
  -3   7   3   59.95    4.27
   3   7  -3   64.27    4.47
  -3   7   3   64.74    4.14
   3   7   3   61.26    4.13
   3   7   3   60.95    5.02
  -3  -7   3   58.93    3.62
   4  -7   3    9.11    2.17
   4   7  -3    8.71    2.62
  -4   7   3    4.07    1.88
  -4  -7   3    7.22    1.94
   4   7   3   10.91    2.57
   4   7   3   10.36    2.71
   5   7  -3    4.95    2.60
  -5   7   3    5.09    2.24
   5  -7   3    1.77    1.83
  -5  -7   3    2.15    1.64
   5   7   3    4.85    2.57
  -6   7   3    7.18    2.82
   6  -7   3    4.82    2.44
   6   7  -3    6.92    3.11
   6   7   3    5.98    3.13
   0   8   3   85.79    4.96
   0  -8   3   77.59    4.04
   0  -8  -3   83.72    3.91
  -1  -8  -3   68.94    3.29
  -1   8   3   63.87    4.43
   1  -8   3   68.10    3.92
   1  -8  -3   81.64    4.10
   1   8   3   73.82    4.48
  -1  -8   3   79.54    3.98
   2  -8   3   17.75    2.65
   2   8  -3   10.19    1.85
  -2   8   3   13.47    2.41
   2   8  -3   12.98    2.41
  -2  -8   3   13.54    2.15
   2   8   3    9.37    2.14
   3  -8   3   11.98    2.44
  -3   8   3   10.32    2.16
   3   8   3    9.08    2.35
  -3  -8   3   10.45    2.06
   3   8   3   10.99    2.48
   4  -8   3   13.75    2.70
  -4   8   3   13.10    2.83
   4   8  -3   15.14    3.22
   4   8   3   16.26    3.02
   4   8   3   14.14    3.08
  -4  -8   3   13.72    2.41
   5   8  -3   -0.14    1.92
  -5   8   3   -1.02    1.16
   5  -8   3   -0.35    1.81
  -5  -8   3    0.70    1.68
   5   8   3    1.56    2.29
   6   8  -3    3.49    2.74
   6  -8   3    5.98    2.73
  -6   8   3    0.52    2.26
   6   8   3    2.85    2.81
   0  -9  -3    0.37    0.83
   0   9   3   -1.41    1.13
   0  -9   3    0.51    1.24
  -1   9   3   70.91    4.79
   1  -9   3   54.33    3.79
   1   9   3   61.11    4.32
  -1  -9   3   55.98    3.75
   1  -9  -3   64.54    3.91
   2  -9   3   20.25    2.82
  -2   9   3   21.20    3.28
   2   9  -3   23.12    3.12
  -2  -9   3   19.03    2.66
   2   9   3   19.48    2.99
   2  -9  -3   21.73    2.81
   3  -9   3   36.01    3.90
   3   9  -3   32.88    4.03
  -3   9   3   33.79    3.84
   3   9   3   33.17    3.92
   3   9   3   33.84    4.08
  -3  -9   3   36.79    3.61
   4  -9   3   28.34    3.53
  -4   9   3   28.48    3.89
   4   9  -3   27.55    4.15
  -4  -9   3   27.15    3.26
   4   9   3   26.30    3.96
  -5   9   3    6.71    2.61
   5   9  -3    1.25    2.58
   5  -9   3    7.93    2.58
   5   9   3    5.79    2.88
   0  10   3   16.01    2.99
   0 -10   3   18.01    2.59
   0 -10  -3   16.27    2.61
  -1 -10  -3    8.41    1.76
  -1  10   3    9.94    2.60
   1 -10   3   11.13    2.24
   1  10   3   11.08    2.56
  -1 -10   3   10.63    2.10
   1 -10  -3    8.00    2.16
   2 -10   3   43.16    4.17
   2  10  -3   47.65    4.58
  -2  10   3   44.39    4.96
  -2 -10   3   42.70    3.95
   2 -10  -3   22.87    3.11
   2  10   3   39.21    3.97
   2  10   3   40.76    4.43
   3 -10   3   24.75    3.53
   3  10  -3   12.08    3.15
   3 -10  -3   13.46    2.67
   3  10   3   11.88    2.77
   3  10   3   19.64    3.41
  -3 -10   3   18.69    2.87
  -4  10   3   15.63    2.96
   4 -10   3   18.63    3.18
   4  10   3   15.86    3.60
  -4 -10   3   18.65    3.05
   4 -10  -3   15.01    2.96
   5 -10   3    1.76    2.11
   5  10  -3    0.05    2.34
  -5  10   3    1.55    2.32
   5  10   3    1.25    2.41
   0 -11   3   35.39    3.76
   0 -11  -3   42.97    3.96
   0  11   3   50.10    5.15
  -1  11   3   10.11    2.85
  -1 -11  -3    9.10    1.96
   1 -11   3    8.07    2.32
  -1 -11   3    5.45    1.95
   1  11   3    5.99    2.41
   1 -11  -3    7.81    2.31
   2 -11   3  137.30    6.75
  -2 -11  -3  115.82    5.43
   2  11  -3  120.12    6.43
  -2  11   3  120.17    7.21
   2  11   3  114.21    6.00
   2  11   3  107.53    6.56
  -2 -11   3  119.82    6.05
   3 -11   3    2.75    1.96
   3  11  -3    0.64    2.00
   3  11   3    1.94    1.98
   3  11   3    2.82    2.44
   3 -11  -3    4.76    2.33
  -3 -11   3    1.62    1.76
   4 -11   3    0.66    1.88
   4  11  -3    0.09    2.20
  -4 -11   3    2.21    2.01
   4  11   3    0.72    2.47
   4 -11  -3   -0.41    1.74
   5 -11   3    8.10    2.94
   5  11  -3    7.96    3.32
   5  11   3    1.03    3.12
   5 -11  -3    5.25    2.64
   0  12   3    4.54    2.24
   0 -12   3    0.27    1.15
   0 -12  -3    6.71    2.06
   1 -12   3   12.06    2.64
  -1  12   3   13.52    3.20
  -1 -12  -3   13.86    2.49
   1  12   3   17.23    3.59
  -1 -12   3   10.68    2.58
   1 -12  -3   16.09    2.91
   2  12  -3    1.08    2.06
  -2  12   3    3.88    2.45
   2 -12   3    5.15    2.10
  -2 -12   3    2.54    1.72
   2  12   3    1.71    2.43
   2 -12  -3    2.16    1.75
   3  12  -3    1.31    2.25
   3 -12   3    2.07    2.09
   3  12   3   -0.30    2.36
   3 -12  -3    2.81    2.02
  -3 -12   3    0.93    1.74
   3  12   3    1.31    2.05
   4 -12   3    5.44    2.44
   4  12  -3    2.38    2.64
   4 -12  -3    1.56    2.25
   4  12   3    8.29    3.49
  -4 -12   3    8.35    2.63
   0  13   3    4.54    2.54
   0 -13  -3    7.81    2.26
   0 -13   3   -1.06    1.18
  -1 -13  -3   22.16    3.33
   1 -13   3   23.68    3.57
  -1  13   3   25.43    4.30
  -1 -13   3   17.70    3.00
   1  13   3   23.41    4.18
   1 -13  -3   14.58    2.87
   2 -13   3    2.61    2.16
  -2  13   3    0.34    2.05
   2  13   3    2.87    2.78
  -2 -13   3   -1.66    1.61
   2 -13  -3    1.93    1.88
   3  13  -3    4.10    2.72
   3 -13   3    1.91    2.16
  -3 -13   3    3.11    2.16
   3  13   3    0.72    2.63
   3 -13  -3    4.55    2.50
   0 -14   3    0.76    1.98
   0  14   3    1.14    2.30
   0 -14  -3    1.42    1.98
  -1  14   3    4.65    2.73
   1 -14   3   -2.00    1.39
  -1 -14  -3    0.72    1.76
   1  14   3   -2.24    2.04
   1 -14  -3    0.64    1.73
  -1 -14   3   -0.29    1.72
   2 -14   3    8.17    2.83
   2 -14  -3    5.12    2.67
   2  14   3    6.94    3.26
  -2 -14   3    8.50    2.81
   3  14  -3    4.55    3.10
   3 -14   3    5.05    2.67
  -3 -14   3    5.78    2.58
   3 -14  -3    3.15    2.39
   0 -15  -3    1.77    2.11
   0 -15   3    7.80    2.91
   0  15   3    0.11    2.33
   1 -15   3    0.45    2.21
  -1  15   3   -1.33    2.10
   1  15   3   -1.05    2.82
   1 -15  -3    4.49    2.47
  -1 -15   3    1.56    2.12
   0   0   4 9233.71  210.72
   0   0   4 9999.00  205.59
   1   0   4  434.53    9.54
   1   0   4  442.41   11.37
  -1   0   4  416.45   10.48
   1   0  -4  420.32   10.12
  -1   0   4  428.91   10.30
   2   0   4   66.97    3.43
   2   0   4   62.28    2.03
   2   0  -4   69.19    2.98
   3   0   4   34.97    3.33
  -3   0   4   31.03    2.72
  -3   0  -4   35.75    1.62
   3   0  -4   33.09    2.95
   4   0  -4  407.21   12.04
   4   0   4  411.13   12.76
  -4   0   4  414.21   11.92
   5   0   4    1.73    1.77
   5   0  -4    5.12    1.96
  -5   0   4    0.10    1.31
  -6   0   4    0.46    1.76
   6   0  -4    3.60    2.44
   6   0   4    3.83    2.38
   7   0   4    3.95    2.89
   7   0  -4    2.62    3.02
  -7   0   4    3.54    2.55
   0   1   4  514.93   11.58
   0  -1   4  486.54   11.72
   0   1   4  519.43   12.68
   0  -1   4  516.33   12.50
  -1   1   4  299.20    7.66
   1  -1   4  287.03    7.02
  -1   1   4  294.90    7.66
   1   1  -4  287.73    7.59
   1  -1   4  295.29    8.34
   1   1   4  293.33    8.36
  -1  -1   4  292.00    7.18
  -1  -1   4  282.79    7.65
   1   1   4  293.52    6.40
   2   1  -4   69.63    3.27
   2  -1   4   74.22    2.51
   2  -1   4   66.07    3.52
  -2   1   4   83.17    3.36
   2   1   4   70.85    1.78
   2  -1  -4   67.22    2.85
   2   1   4   70.31    3.59
   3   1  -4  386.20   11.07
   3  -1   4  390.47   11.74
   3  -1   4  398.07    9.68
  -3  -1   4  394.03   10.84
   3   1   4  383.09   11.55
   3  -1  -4  387.37   10.52
  -4   1   4   68.09    3.90
   4   1  -4   69.41    4.27
   4  -1   4   65.47    4.27
   4   1   4   61.85    4.05
   4  -1  -4   66.91    3.90
  -4  -1   4   61.22    3.65
  -5   1   4   16.66    2.65
   5   1  -4   17.41    3.00
   5  -1   4   19.78    3.30
  -5  -1   4   21.53    3.03
   5  -1  -4   21.11    3.10
   5   1   4   19.20    3.03
   6   1  -4   20.22    3.67
  -6   1   4   12.66    2.81
   6  -1   4    8.39    2.77
   6  -1   4   13.85    3.12
   6  -1  -4   14.31    3.16
   6   1   4   12.08    3.15
  -6  -1   4   13.84    2.78
   7  -1   4    1.33    3.07
  -7   1   4    0.49    2.29
   7   1  -4    3.29    3.13
   7   1   4    4.63    3.06
  -7  -1   4    4.18    2.52
   0  -2   4   24.09    1.57
   0   2   4   23.71    1.39
   1   2  -4 1025.89   22.70
  -1   2   4 1012.47   23.62
  -1   2   4 1023.35   22.80
   1  -2   4 1022.39   22.36
   1   2   4 1006.07   21.34
  -1  -2   4  995.31   22.75
  -1  -2   4 1019.36   22.84
   1   2   4  981.18   24.09
   2  -2   4  161.37    4.76
  -2   2   4  161.31    5.45
   2   2  -4  151.32    5.53
  -2   2   4  159.22    5.15
   2  -2  -4  166.61    4.68
   2   2   4  165.67    5.87
   3  -2   4  103.24    3.76
   3   2  -4  100.60    4.75
   3  -2   4  102.84    5.07
   3   2   4   92.20    4.65
  -3  -2   4  105.23    4.34
   3  -2  -4  105.47    4.07
  -4   2   4   28.58    3.07
   4  -2   4   37.68    2.44
   4  -2   4   32.61    3.65
   4   2  -4   30.45    3.62
  -4  -2   4   29.01    2.87
   4   2   4   31.80    3.34
   4  -2  -4   35.16    3.22
   5   2  -4   14.89    2.95
   5  -2   4   13.51    2.84
  -5   2   4   12.44    2.55
   5   2   4   12.71    2.56
   5  -2  -4   15.77    2.73
   5   2   4   11.91    2.93
  -5  -2   4   10.06    2.22
   6  -2   4   27.24    4.00
   6   2  -4   21.38    3.79
  -6   2   4   33.14    4.01
  -6  -2   4   19.93    3.13
   6  -2  -4   21.65    3.51
   6   2   4   27.66    4.43
  -7   2   4    9.29    3.07
   7   2  -4    2.30    2.72
   7  -2   4    7.73    3.42
   7   2   4    2.96    3.07
   0   3   4 3247.94   68.90
   0  -3   4 3258.70   69.36
  -1   3   4    2.93    1.03
   1  -3   4    1.20    0.70
   1   3  -4    1.62    0.93
  -1   3   4    0.41    0.85
  -1  -3  -4    1.13    0.36
   1   3   4    0.97    1.07
  -1  -3   4    2.37    0.75
  -2   3   4  114.28    4.42
   2  -3   4  116.56    4.08
   2   3  -4  119.16    4.83
  -2   3   4  111.05    4.49
   2   3   4  118.08    4.89
   2  -3  -4  118.85    3.42
  -2  -3   4  118.77    4.47
   3  -3   4   78.50    3.44
   3   3  -4   77.90    4.31
   3   3   4   80.97    4.25
  -3  -3   4   86.81    3.83
   3  -3  -4   82.18    3.36
   4   3  -4    4.97    1.95
  -4   3   4    1.62    1.37
   4  -3   4    3.25    1.23
   4   3   4    5.18    1.90
  -4  -3   4    3.91    1.36
   4  -3  -4    4.51    1.48
   4   3   4    5.29    1.64
   5  -3   4   67.86    3.93
  -5   3   4   68.27    4.52
   5   3  -4   70.89    6.07
   5  -3   4   63.56    5.69
   5  -3  -4   68.42    4.33
  -5  -3   4   71.77    4.39
   5   3   4   69.07    6.23
   5   3   4   64.04    4.55
   6  -3   4   -0.34    1.97
   6   3  -4    0.66    2.26
  -6   3   4    0.06    1.86
   6   3   4   -0.46    1.95
  -6  -3   4   -1.12    1.56
  -7   3   4    4.64    2.68
   7  -3   4    4.47    3.07
   7   3  -4    0.56    2.85
   7   3   4   -0.94    2.65
   0   4   4  223.77    7.22
   0   4   4  220.78    6.15
   0  -4   4  224.93    6.59
   0   4   4  221.25    5.48
   1  -4   4   17.07    1.78
  -1  -4  -4   20.81    1.15
  -1   4   4   19.83    2.20
  -1   4   4   22.36    2.11
   1   4  -4   23.77    2.28
  -1  -4   4   23.46    2.13
   1   4   4   21.90    2.42
   2   4  -4  489.81   13.46
  -2   4   4  533.93   13.78
  -2   4   4  495.27   13.20
   2  -4   4  504.85   12.72
   2  -4  -4  499.56   10.91
   2   4   4  490.63   13.99
  -2  -4   4  496.70   12.93
   2   4   4  501.24   13.10
  -3   4   4  171.15    6.36
   3   4  -4  155.80    6.63
   3  -4   4  160.85    5.73
  -3  -4   4  163.01    5.97
   3  -4  -4  163.92    5.02
   3   4   4  170.46    6.62
   4  -4   4    1.88    1.15
  -4   4   4    0.29    0.84
   4   4  -4    2.13    1.63
  -4  -4   4    0.61    1.20
   4  -4  -4    1.43    1.21
   4   4   4    3.07    1.82
   4   4   4    1.40    1.53
   5   4  -4   19.78    3.64
  -5   4   4   12.21    2.73
   5  -4   4   22.74    2.89
   5  -4   4   19.19    3.52
   5   4   4   12.93    3.10
  -5  -4   4   21.33    2.89
   5   4   4   25.52    3.57
   6   4  -4    6.54    2.60
   6  -4   4    2.30    2.38
  -6   4   4    6.86    2.74
   6   4   4    3.34    2.60
  -6  -4   4    1.83    1.85
   0  -5   4  173.94    5.78
   0   5   4  177.85    5.36
   0   5   4  175.84    4.63
   0   5   4  169.33    6.36
   1  -5   4   54.35    2.89
  -1  -5  -4   56.37    2.19
  -1   5   4   50.41    2.83
   1   5   4   56.36    3.41
   1   5   4   48.98    2.55
   2   5  -4  240.63    8.01
  -2   5   4  238.27    8.04
   2  -5   4  228.54    7.31
  -2   5   4  235.29    7.67
  -2  -5  -4  229.74    5.86
   2   5   4  236.11    7.55
  -2  -5   4  240.84    7.44
   2   5   4  223.28    8.08
   3  -5   4   25.96    2.59
   3   5  -4   29.84    3.45
  -3   5   4   21.28    2.75
   3  -5  -4   25.37    1.85
  -3  -5   4   26.47    2.54
   3   5   4   34.55    3.39
   3   5   4   23.96    2.94
   4  -5   4  159.44    6.08
   4   5  -4  144.75    7.07
  -4   5   4  146.03    6.49
  -4  -5   4  150.35    6.08
   4   5   4  144.37    6.65
   4   5   4  125.50    6.66
  -5   5   4    8.27    2.26
   5  -5   4   10.77    2.29
   5   5  -4   10.29    2.95
   5   5   4   11.00    3.04
  -5  -5   4   11.76    2.42
   6  -5   4   -0.02    2.27
   6   5  -4   11.00    3.27
  -6   5   4    1.94    2.08
  -6  -5   4    2.99    2.02
   6   5   4    3.08    2.98
   0  -6   4  266.20    8.11
   0  -6  -4  265.62    7.57
   0   6   4  267.02    8.98
  -1  -6  -4  137.58    4.42
   1  -6   4  138.65    5.28
  -1   6   4  144.17    5.33
   1   6   4  135.61    5.92
   1   6   4  147.99    4.95
  -2  -6  -4   83.09    2.89
  -2   6   4   80.48    4.32
  -2   6   4   80.58    4.14
   2  -6   4   76.51    3.94
  -2  -6   4   84.99    3.93
   2   6   4   80.41    4.54
  -3   6   4   17.63    2.54
   3   6  -4   24.35    3.27
   3  -6   4   22.01    2.71
   3   6   4   16.24    2.69
  -3  -6   4   12.05    2.03
   3   6   4   18.91    2.85
  -4   6   4   41.12    3.98
   4  -6   4   41.79    3.80
   4   6  -4   43.50    4.66
  -4  -6   4   40.44    3.69
   4   6   4   53.22    4.79
   4   6   4   38.50    4.49
  -5   6   4   13.37    2.88
   5  -6   4   15.44    2.67
   5   6  -4   12.66    3.19
  -5  -6   4   12.75    2.44
   5   6   4   10.55    3.02
   6   6  -4    2.96    2.51
  -6   6   4    4.97    2.57
   6   6   4    2.36    2.74
   0   7   4   99.56    5.14
   0  -7  -4  100.31    4.11
   0  -7   4  110.55    4.65
  -1   7   4   34.98    3.13
   1  -7   4   28.31    2.84
  -1  -7  -4   30.58    1.99
   1   7  -4   33.90    3.11
   1   7   4   36.06    3.66
   2  -7   4  115.34    5.21
  -2   7   4  115.95    5.65
  -2   7   4  117.31    5.33
  -2  -7   4  115.14    5.03
   2   7   4  121.70    5.90
   3  -7   4   71.83    4.14
   3   7  -4   74.92    4.94
  -3   7   4   62.50    4.19
  -3   7   4   74.95    4.75
  -3  -7   4   65.37    3.88
   3   7   4   58.94    4.92
   3   7   4   74.25    4.70
   4  -7   4   30.73    3.49
   4   7  -4   37.51    4.63
  -4   7   4   31.64    3.75
  -4  -7   4   26.32    3.12
   4   7   4   33.14    4.25
   4   7   4   24.46    3.58
   5   7  -4    1.08    2.22
   5  -7   4    0.15    1.72
  -5   7   4    0.85    1.42
  -5  -7   4    2.37    1.63
   5   7   4   -0.08    1.45
   6   7  -4   11.96    3.53
  -6   7   4    6.39    2.55
   6  -7   4    7.91    2.69
   6   7   4    9.06    3.76
   0   8   4   77.78    4.72
   0  -8  -4   69.01    3.49
   0  -8   4   61.85    3.74
  -1  -8  -4   17.03    1.92
   1  -8   4   11.90    2.05
  -1   8   4   16.54    2.89
   1  -8  -4   17.06    2.31
   1   8   4    8.33    2.08
  -2   8   4   43.84    3.92
   2   8  -4   51.94    4.54
   2  -8   4   56.73    3.70
  -2   8   4   47.91    4.60
  -2  -8   4   42.45    3.67
   2   8   4   55.43    4.84
   3   8  -4   21.88    3.37
  -3   8   4   23.01    3.28
   3  -8   4   28.14    3.20
  -3   8   4   19.14    3.32
   3   8   4   23.52    3.42
  -3  -8   4   26.38    3.15
   3   8   4   18.93    3.26
   4   8  -4    5.99    2.39
   4  -8   4    5.08    1.92
  -4   8   4    5.50    2.18
  -4  -8   4    5.49    1.79
   4   8   4    4.69    2.52
   4   8   4    8.25    2.60
   5   8  -4    6.39    2.71
   5  -8   4    4.05    2.18
  -5   8   4    2.76    2.12
   5   8   4    5.62    2.71
  -5  -8   4    2.63    2.03
  -6   8   4   -0.35    2.10
   6   8  -4    6.49    3.30
   6  -8   4    1.83    2.45
   6   8   4    0.29    3.28
   0  -9  -4   17.42    2.29
   0   9   4   14.19    2.77
   0  -9   4   19.95    2.71
  -1   9   4  232.72    9.65
   1  -9   4  241.25    8.65
  -1  -9   4  248.62    8.62
   1   9   4  255.36    9.74
   1  -9  -4  251.42    8.63
   2  -9   4    4.88    1.86
  -2   9   4   -0.83    1.03
  -2   9   4    4.38    1.83
   2   9  -4    2.79    1.64
  -2  -9   4    4.02    1.58
   2   9   4    4.08    1.86
   3  -9   4   54.40    4.79
  -3   9   4   43.81    4.37
   3   9   4   53.00    5.02
  -3  -9   4   43.84    4.11
   3   9   4   52.76    5.05
  -4   9   4    4.31    2.08
   4  -9   4    2.32    1.94
   4   9  -4    0.06    1.90
  -4  -9   4    2.79    1.78
   4   9   4   -0.47    1.89
   4   9   4    7.05    2.75
   5  -9   4    0.12    1.88
  -5   9   4   -0.53    1.81
   5   9  -4   -1.13    2.02
  -5  -9   4    2.54    1.95
   5   9   4   -0.23    2.14
   0 -10   4    5.48    1.89
   0  10   4    4.91    2.11
   0 -10  -4    2.74    1.48
   1 -10   4   65.19    4.31
  -1  10   4   73.31    5.41
   1 -10  -4   71.66    4.35
  -1 -10   4   63.60    4.29
   1  10   4   67.08    4.92
   2 -10   4   43.61    4.24
  -2  10   4   47.53    5.07
   2  10  -4   48.75    4.77
  -2 -10   4   43.63    4.04
   2  10   4   51.38    4.45
   2  10   4   54.50    5.18
   2 -10  -4   44.40    4.37
   3 -10   4   22.21    3.54
  -3  10   4   21.17    3.37
   3  10  -4   13.55    3.11
  -3  10   4   15.95    3.24
   3  10   4    8.86    2.57
  -3 -10   4   17.67    2.86
   3 -10  -4    8.57    2.57
   3  10   4   17.90    3.42
  -4  10   4    1.89    2.02
   4  10  -4    0.47    2.42
   4 -10   4    1.91    1.85
  -4 -10   4    1.07    1.81
   4  10   4    3.68    2.30
  -5  10   4    5.04    2.74
   5  10  -4    3.88    2.80
   5 -10   4    4.99    2.54
   5  10   4   -1.51    2.27
   0 -11  -4   12.49    2.36
   0 -11   4    4.73    1.86
   0  11   4   10.40    2.86
  -1 -11  -4    6.56    1.79
   1 -11   4    4.89    1.94
  -1  11   4    6.43    2.47
   1 -11  -4    4.46    1.91
   1  11   4    7.67    2.64
  -1 -11   4    5.70    1.99
  -2  11   4   -0.65    2.00
   2  11  -4    1.49    1.87
   2 -11   4    1.21    1.61
   2  11   4    0.43    1.85
   2  11   4   -1.57    1.79
  -2 -11   4    2.94    1.84
   2 -11  -4    1.65    1.80
  -3  11   4    1.06    2.15
   3 -11   4    1.06    1.91
   3  11  -4    3.22    2.35
   3  11   4    0.78    2.08
  -3 -11   4    4.11    1.96
   3  11   4    3.05    2.43
   3 -11  -4   -1.19    1.42
   4 -11   4    7.12    2.64
   4  11  -4    6.23    2.88
  -4 -11   4    3.69    2.16
   4 -11  -4    4.50    2.39
   4  11   4    5.79    3.01
   5 -11   4    2.39    2.45
   5  11  -4    0.28    2.89
   5 -11  -4    2.27    2.42
   5  11   4    1.18    2.73
   0 -12  -4    3.83    1.85
   0  12   4    1.24    2.22
   0 -12   4    5.05    2.00
  -1 -12  -4   13.22    2.48
  -1  12   4   10.66    2.97
   1 -12   4   13.73    2.95
   1  12   4   16.03    3.39
  -1 -12   4   10.46    2.58
   1 -12  -4   14.33    2.75
   2  12  -4    1.57    2.16
   2 -12   4    2.79    1.88
  -2  12   4    1.32    2.27
  -2 -12   4    2.34    1.74
   2 -12  -4    0.84    1.69
   2  12   4    1.76    2.20
   3  12  -4    2.42    2.55
   3 -12   4    0.30    2.10
   3  12   4    5.79    2.87
   3  12   4    1.91    2.44
  -3 -12   4    4.68    2.14
   3 -12  -4    3.57    2.25
   4 -12   4   -1.62    1.72
   4  12  -4    1.97    2.56
   4 -12  -4   -1.75    1.66
  -4 -12   4    3.45    2.27
   4  12   4    2.85    2.75
   0  13   4    5.19    2.48
   0 -13   4    5.27    2.08
   0 -13  -4    5.51    2.10
  -1  13   4    2.57    2.30
  -1 -13  -4    4.43    1.98
   1 -13   4    6.99    2.49
   1  13   4    3.45    2.61
  -1 -13   4    8.54    2.54
   1 -13  -4    3.01    1.92
  -2  13   4    1.02    2.32
   2 -13   4   -0.39    1.66
   2  13   4   -1.73    2.33
   2 -13  -4   -0.33    1.61
  -2 -13   4    0.44    1.89
   3 -13   4    1.05    2.02
   3  13  -4   -0.30    2.42
  -3 -13   4    2.98    2.31
   3 -13  -4    0.34    2.11
   3  13   4    0.71    2.77
   0 -14  -4    0.37    1.86
   0 -14   4    0.89    1.80
   0  14   4   -0.04    2.46
  -1  14   4   -2.15    2.30
   1 -14   4   -0.47    1.75
   1  14   4   -0.48    2.05
   1 -14  -4    2.97    2.10
  -1 -14   4   -0.13    1.70
  -2  14   4    2.82    2.57
   2 -14   4   -3.00    1.91
   2  14   4    1.80    3.07
  -2 -14   4   -0.48    1.87
   2 -14  -4    1.47    2.18
   0 -15   4   -0.33    1.69
   0 -15  -4    0.67    2.02
   0  15   4    1.10    2.46
   1 -15   4    1.86    2.26
  -1  15   4    3.12    2.73
   1 -15  -4    4.09    2.59
  -1 -15   4    3.25    2.34
   1  15   4    3.03    2.66
   0   0   5    0.17    0.59
   0   0   5    0.39    0.82
  -1   0   5  568.53   13.51
   1   0   5  566.63   12.48
  -1   0   5  548.15   13.41
   1   0   5  554.21   14.46
   2   0  -5    0.57    0.72
  -2   0   5    2.42    0.92
   2   0   5    0.72    0.39
   2   0   5    0.71    1.06
   3   0   5  489.76   11.23
   3   0   5  479.76   14.16
   3   0  -5  491.02   12.98
   4   0  -5  110.56    5.31
   4   0   5   97.11    5.35
  -4   0   5  110.76    5.21
   5   0   5    6.19    2.34
   5   0  -5    6.86    2.14
  -5   0   5    6.81    2.06
  -6   0   5    4.40    2.15
   6   0  -5    2.49    2.22
   6   0   5    1.94    2.19
   6   0   5    1.78    2.25
   7   0   5    2.10    2.73
   7   0  -5    3.50    2.96
  -7   0   5    1.73    2.49
   0   1   5 1333.91   29.47
   0  -1   5 1352.28   31.24
   0   1   5 1379.45   31.43
   0  -1   5 1370.34   29.70
  -1   1   5  147.47    4.64
  -1   1   5  142.95    4.68
   1  -1   5  139.45    4.05
   1   1   5  143.42    5.30
  -1  -1   5  146.58    4.28
  -1  -1   5  142.14    4.72
   1   1   5  145.53    3.61
   2   1  -5  138.80    5.13
   2  -1   5  156.24    5.91
  -2   1   5  156.55    5.36
   2  -1   5  152.57    4.21
  -2   1   5  141.98    4.57
   2   1   5  146.26    5.79
  -2  -1   5  150.00    5.16
   2  -1  -5  150.28    4.76
   3  -1   5   45.40    2.14
   3   1  -5   46.24    3.79
   3  -1   5   38.51    3.64
   3   1   5   46.61    3.33
   3   1   5   44.18    1.53
   3  -1  -5   46.24    2.82
   4  -1   5   17.50    2.80
   4  -1   5   16.29    1.73
   4   1  -5   17.06    2.68
  -4   1   5   15.99    2.44
   4  -1  -5   13.91    2.35
   4   1   5   18.82    2.82
  -4  -1   5   12.70    2.13
  -5   1   5   81.58    4.94
   5   1  -5   80.62    5.24
   5  -1   5   87.79    5.66
   5  -1  -5   82.29    5.09
   5   1   5   85.60    5.39
  -5  -1   5   80.99    4.86
   6   1  -5   -0.12    2.00
   6  -1   5    0.89    1.94
  -6   1   5   -2.10    1.60
   6  -1  -5    0.20    2.05
  -6  -1   5    1.54    1.79
   6   1   5   -2.04    1.60
   7  -1   5    2.49    2.70
   7   1  -5    0.46    2.60
  -7   1   5   -0.94    2.30
   7   1   5   -0.22    2.45
  -7  -1   5    0.88    2.31
   0  -2   5   39.65    2.14
   0   2   5   37.92    2.44
   0   2   5   38.38    1.85
   0  -2   5   38.46    2.24
  -1   2   5  810.71   19.71
   1  -2   5  835.45   18.57
  -1   2   5  817.86   19.01
   1   2  -5  796.69   18.92
   1   2   5  835.26   17.59
  -1  -2   5  819.81   19.09
  -1  -2   5  841.91   19.01
   1   2   5  790.66   20.28
   2   2  -5  456.48   12.43
  -2   2   5  471.53   12.42
  -2   2   5  461.67   12.18
   2  -2   5  485.74   11.47
   2  -2   5  470.65   13.40
   2   2   5  477.73   13.28
  -2  -2   5  493.28   12.56
   2  -2  -5  474.96   11.16
  -3   2   5  218.80    7.23
   3   2  -5  200.56    7.34
   3  -2   5  209.29    6.07
   3  -2   5  190.65    7.64
   3   2   5  211.80    7.74
  -3  -2   5  198.44    6.87
   3  -2  -5  206.47    6.41
   4  -2   5   30.67    2.47
  -4   2   5   29.33    3.32
   4   2  -5   27.39    3.45
   4  -2   5   29.74    3.69
  -4  -2   5   33.20    3.23
   4  -2  -5   31.57    3.08
   4   2   5   26.59    3.37
  -5   2   5   63.01    5.15
   5  -2   5   74.66    5.30
   5   2  -5   72.97    6.06
   5   2   5   76.26    5.05
   5  -2  -5   71.81    4.60
   5   2   5   85.17    5.70
  -5  -2   5   73.47    4.66
   6  -2   5    9.48    3.01
  -6   2   5    5.51    2.33
   6   2  -5   10.03    3.10
  -6  -2   5   12.82    2.65
   6   2   5    6.40    2.81
   7  -2   5   -0.05    2.69
   7   2  -5   -1.13    2.55
  -7   2   5    0.65    2.43
   7   2   5   -1.94    2.39
  -7  -2   5   -0.15    2.14
   0  -3   5  245.81    7.01
   0   3   5  247.74    6.55
  -1   3   5  180.54    5.90
  -1   3   5  170.69    5.42
   1  -3   5  166.56    5.23
   1   3  -5  168.32    5.70
   1   3   5  173.91    4.28
  -1  -3   5  170.93    5.54
   1   3   5  167.19    6.16
   2   3  -5   11.08    1.87
  -2   3   5   12.47    1.63
  -2   3   5   12.50    1.81
   2  -3   5   11.62    1.50
   2   3   5   12.39    2.03
   2  -3  -5   12.34    1.14
  -3   3   5   70.46    3.79
   3   3  -5   67.42    4.19
   3  -3   5   63.39    3.11
   3   3   5   65.84    4.03
  -3  -3   5   65.26    3.46
   3  -3  -5   69.65    3.06
   4  -3   5   21.52    3.30
  -4   3   5   20.52    2.76
   4  -3   5   19.53    2.22
   4   3  -5   20.68    3.14
   4  -3  -5   21.35    2.50
  -4  -3   5   17.88    2.53
   4   3   5   21.73    3.03
  -5   3   5   27.69    3.51
   5   3  -5   30.38    4.08
   5  -3   5   35.31    4.49
  -5  -3   5   30.57    3.43
   5   3   5   30.07    4.24
   5   3   5   34.02    4.02
  -6   3   5   -0.41    1.86
   6  -3   5   -0.37    2.15
   6   3  -5    3.52    2.47
  -6  -3   5    0.36    1.72
   6   3   5    1.00    2.54
   0   4   5   16.37    1.55
   0  -4   5   20.18    2.01
  -1   4   5  415.08   11.52
  -1  -4  -5  397.64    9.34
   1  -4   5  388.21   10.46
   1   4  -5  406.83   10.94
  -1   4   5  399.36   10.67
  -1  -4   5  410.75   10.80
  -2   4   5  432.18   11.94
   2   4  -5  419.34   12.11
   2  -4   5  432.38   11.39
  -2   4   5  450.43   12.38
   2   4   5  442.03   12.91
   3  -4   5   37.22    2.54
  -3   4   5   38.23    3.44
   3   4  -5   44.63    4.00
   3   4   5   43.21    3.98
  -3  -4   5   40.34    2.81
   3  -4  -5   36.40    2.11
   4  -4   5   63.38    3.69
   4   4  -5   72.20    4.94
  -4   4   5   68.09    4.30
   4   4   5   69.47    4.53
  -4  -4   5   60.71    3.86
   4   4   5   76.92    5.03
   5  -4   5   41.49    4.83
  -5   4   5   46.61    4.57
   5  -4   5   50.17    3.53
   5   4  -5   47.01    5.05
   5   4   5   49.95    4.81
  -5  -4   5   46.88    4.25
   5   4   5   45.46    5.16
   6   4  -5    5.97    2.82
   6  -4   5    9.99    3.35
  -6   4   5    8.58    2.66
  -6  -4   5    9.29    2.60
   6   4   5    4.71    2.86
   0   5   5  303.06    8.16
   0   5   5  306.46    7.33
   0   5   5  293.64    9.51
   0  -5   5  294.85    8.68
  -1  -5  -5   82.27    2.86
  -1   5   5   79.90    3.73
   1  -5   5   80.47    3.66
  -1   5   5   86.99    4.22
   1   5   5   84.09    3.45
   1   5   5   83.77    4.39
  -1  -5   5   84.38    3.82
   2  -5   5   79.96    3.86
  -2   5   5   81.91    4.10
   2   5  -5   94.19    4.51
  -2   5   5   90.16    4.43
   2   5   5   80.29    4.00
  -3   5   5   27.92    3.10
   3   5  -5   32.24    3.64
   3  -5   5   31.03    2.86
   3   5   5   35.79    3.72
  -3  -5   5   31.29    3.11
   3   5   5   30.57    3.41
   4   5  -5   13.53    2.82
  -4   5   5    8.43    2.25
   4  -5   5   13.29    2.18
   4   5   5   13.18    2.69
  -4  -5   5    7.92    1.98
   4   5   5    4.83    2.18
  -5   5   5    0.42    1.21
   5   5  -5    1.61    1.90
   5  -5   5    5.10    1.94
   5   5   5    2.84    2.39
   5   5   5    4.55    2.37
  -5  -5   5    4.60    1.87
   6   5  -5    1.33    2.55
  -6   5   5    4.99    2.40
   6  -5   5    3.08    2.58
   6   5   5    1.70    2.56
  -6  -5   5    3.71    2.13
   0   6   5   45.51    3.19
   0   6   5   40.08    2.49
   0  -6   5   43.64    2.82
  -1  -6  -5  208.74    5.98
   1  -6   5  205.95    7.05
  -1   6   5  211.92    7.03
   1   6   5  224.69    6.65
   1   6   5  205.32    7.93
  -1  -6   5  226.13    7.26
  -2   6   5  137.55    5.71
   2   6  -5  139.06    6.01
   2  -6   5  130.16    5.38
   2   6   5  139.52    6.29
  -2  -6   5  134.34    5.51
  -3   6   5   22.05    2.91
   3  -6   5   21.47    2.64
   3   6  -5   23.54    3.30
  -3  -6   5   23.18    2.75
   3   6   5   23.80    3.41
   3   6   5   24.72    3.28
   4   6  -5   -0.10    1.73
   4  -6   5    1.31    1.33
  -4   6   5   -0.18    1.41
   4   6   5   -1.29    1.51
   4   6   5    2.07    1.96
  -4  -6   5    3.79    1.62
   5  -6   5   17.66    2.99
  -5   6   5   14.50    2.93
   5   6  -5   15.75    3.34
  -5  -6   5    9.77    2.28
   5   6   5   15.16    3.40
   6  -6   5    5.40    2.68
   6   6  -5    7.86    3.20
  -6   6   5   -0.40    1.92
  -6  -6   5    3.15    2.06
   6   6   5    5.69    3.57
   0  -7   5   20.75    2.48
   0  -7  -5   21.25    2.10
   0   7   5   23.62    3.07
  -1   7   5    8.67    1.77
  -1  -7  -5   12.38    1.52
   1  -7   5   12.28    2.10
   1   7   5   12.98    2.54
  -1  -7   5   16.20    2.18
  -2   7   5  133.98    6.55
  -2   7   5  148.82    6.11
   2  -7   5  138.22    5.86
   2   7  -5  139.71    6.32
  -2  -7   5  140.10    5.83
   2   7   5  136.88    6.64
  -3   7   5   18.39    2.80
   3   7  -5   18.61    3.27
  -3   7   5   26.49    3.44
   3  -7   5   25.24    3.03
   3   7   5   24.12    3.35
  -3  -7   5   18.96    2.69
   3   7   5   18.53    3.11
   4   7  -5    5.79    2.30
  -4   7   5    3.31    2.03
   4  -7   5    5.08    1.85
  -4  -7   5    4.47    1.71
   4   7   5    3.31    2.17
   4   7   5   -0.68    1.77
   5   7  -5   -0.25    1.77
   5  -7   5    1.34    1.79
  -5   7   5    0.65    1.66
   5   7   5    0.80    2.22
  -5  -7   5    0.01    1.58
   6   7  -5    1.48    2.59
  -6   7   5    0.01    2.08
   6   7   5    2.22    2.89
   0   8   5   53.11    4.78
   0  -8  -5   58.50    3.19
   0  -8   5   54.97    3.58
   1  -8   5   57.32    3.66
  -1   8   5   56.24    5.03
  -1   8   5   52.15    3.52
  -1  -8   5   51.69    3.52
   1   8   5   48.92    4.73
   2  -8   5   58.23    3.83
  -2   8   5   50.54    4.31
  -2   8   5   52.45    4.98
  -2  -8   5   48.39    4.17
   2   8   5   56.24    5.20
   3  -8   5   50.80    4.43
  -3   8   5   53.40    4.80
   3   8  -5   44.37    4.71
  -3   8   5   55.93    5.05
   3   8   5   44.33    4.49
  -3  -8   5   45.37    4.21
   3   8   5   54.71    5.09
  -4   8   5    4.08    1.99
   4   8  -5    0.08    1.83
   4  -8   5    1.09    1.67
   4   8   5    0.76    2.11
   4   8   5    1.59    1.98
  -4  -8   5    0.10    1.38
   5   8  -5   -0.54    2.02
  -5   8   5    0.84    1.99
   5  -8   5    2.07    2.04
   5   8   5    1.61    2.54
  -5  -8   5    1.06    1.82
  -6   8   5    0.62    1.93
   6   8  -5    7.40    3.28
   6   8   5    2.34    2.70
   0   9   5   -0.02    1.45
   0  -9   5    0.60    1.31
  -1   9   5  139.02    7.11
   1  -9   5  150.18    6.49
   1  -9  -5  140.10    6.03
   1   9   5  135.89    6.95
  -1  -9   5  144.24    6.28
  -2   9   5   20.83    3.45
   2  -9   5   26.73    3.36
  -2   9   5   19.31    3.00
   2   9  -5   20.29    3.17
   2   9   5   16.79    3.08
  -2  -9   5   18.47    2.77
   3   9  -5   20.35    3.38
  -3   9   5   20.79    3.48
  -3   9   5   21.74    3.26
   3  -9   5   21.09    3.04
   3   9   5   22.35    3.56
  -3  -9   5   22.19    2.98
   3   9   5   22.31    3.66
   4   9  -5    0.75    2.10
  -4   9   5   -0.62    1.79
   4  -9   5    1.05    1.79
  -4  -9   5   -0.80    1.54
   4   9   5   -1.19    2.23
   4   9   5    1.45    2.01
  -5   9   5   11.35    3.24
   5  -9   5    9.70    2.97
   5   9  -5    7.37    3.10
  -5  -9   5   10.37    2.75
   5   9   5   10.27    3.47
   0 -10   5   32.66    3.56
   0 -10  -5   42.95    3.75
   0  10   5   35.44    4.39
  -1  10   5   11.62    2.91
   1 -10   5   17.01    2.75
  -1 -10   5   11.44    2.26
   1  10   5   14.90    3.07
   1 -10  -5   17.37    2.79
  -2  10   5   29.84    4.20
   2  10  -5   28.58    3.85
   2 -10   5   22.54    3.26
  -2 -10   5   24.35    3.20
   2  10   5   21.30    3.00
   2  10   5   25.22    3.70
   2 -10  -5   19.97    3.01
   3  10  -5    1.93    1.95
   3 -10   5   -0.83    1.64
  -3  10   5    3.11    1.96
  -3  10   5    3.82    2.60
   3  10   5    4.25    2.27
  -3 -10   5    2.29    1.70
   3  10   5    2.75    2.33
  -4  10   5   11.03    3.07
   4 -10   5    8.92    2.58
   4  10  -5   13.79    3.58
  -4 -10   5    9.50    2.57
   4  10   5   11.55    3.36
   4  10   5   12.31    3.34
   5 -10   5   10.73    3.16
   5  10  -5    8.16    3.75
  -5  10   5   10.85    3.24
   5  10   5   10.55    3.77
  -5 -10   5   14.02    3.16
   0 -11  -5    1.29    1.62
   0  11   5    3.01    2.24
   0 -11   5    3.38    1.75
  -1 -11  -5   21.83    2.80
   1 -11   5   15.13    2.75
  -1  11   5   19.76    3.70
   1 -11  -5   20.99    3.20
   1  11   5   20.18    3.82
   2 -11   5   45.98    4.59
  -2  11   5   42.58    5.23
   2  11  -5   40.79    4.76
   2  11   5   39.26    5.03
  -2 -11   5   44.24    4.51
   2 -11  -5   34.41    3.98
   3  11  -5    0.49    1.87
   3 -11   5    2.73    2.03
  -3  11   5    0.91    2.22
  -3 -11   5    1.89    1.97
   3 -11  -5    3.98    1.92
   3  11   5    6.85    2.69
   3  11   5    0.78    2.28
   4 -11   5    7.25    2.48
   4  11  -5    4.61    2.49
  -4  11   5    5.00    2.37
   4 -11  -5    2.85    2.17
   4  11   5    7.06    2.87
  -4 -11   5    5.11    2.33
   0 -12  -5    0.31    1.55
   0 -12   5   -0.44    1.51
   0  12   5    1.33    1.97
  -1  12   5   26.42    4.29
   1 -12   5   22.72    3.65
  -1 -12  -5   17.58    2.73
  -1 -12   5    6.62    2.14
   1 -12  -5   17.69    2.94
   1  12   5   15.42    3.53
   2 -12   5    4.89    2.38
  -2  12   5   10.00    3.21
   2 -12  -5    3.55    1.93
   2  12   5    4.30    2.82
  -2 -12   5    8.03    2.31
   3  12  -5    9.22    3.28
   3 -12   5   15.90    3.15
  -3  12   5   13.54    3.61
   3 -12  -5   12.36    3.10
  -3 -12   5    8.79    2.43
   3  12   5   10.99    3.45
   4  12  -5   -2.95    1.90
   4 -12   5   -0.76    2.06
   4 -12  -5    2.36    2.26
  -4 -12   5    0.21    2.14
   4  12   5   -0.25    2.65
   0 -13  -5    0.25    1.68
   0  13   5    1.68    2.35
   0 -13   5   -1.10    1.68
  -1  13   5    7.66    2.86
   1 -13   5    5.93    2.34
   1  13   5    4.46    3.15
  -1 -13   5    2.16    1.87
   1 -13  -5    8.51    2.49
  -2  13   5    3.12    2.90
   2 -13   5   -0.94    1.97
   2  13   5   -1.00    2.14
  -2 -13   5   -0.03    1.68
   2 -13  -5   -1.70    1.54
   3 -13   5   -1.04    2.23
  -3  13   5    0.69    2.18
   3  13  -5    1.67    2.69
  -3 -13   5   -0.67    1.80
   3  13   5    4.38    3.04
   3 -13  -5    0.46    1.44
   0 -14  -5    0.76    1.97
   0 -14   5    4.97    2.39
   0  14   5    9.09    3.25
  -1  14   5    1.67    2.51
   1 -14   5    2.06    2.22
   1 -14  -5    0.11    2.01
   1  14   5   -0.78    2.16
  -1 -14   5   -0.81    1.93
   2 -14   5   14.44    3.49
  -2  14   5   13.98    3.71
  -2 -14   5   11.04    3.11
   2  14   5   12.84    3.97
   2 -14  -5    9.47    2.95
   0  15   5    6.09    2.95
   0 -15   5    5.97    2.77
   0 -15  -5    3.26    2.34
  -1 -15   5    4.99    2.57
   0   0   6  846.07   19.82
   0   0   6  912.54   21.36
  -1   0   6   65.21    3.01
  -1   0   6   62.82    2.71
   1   0   6   67.40    3.55
   1   0   6   62.48    2.26
  -2   0   6   25.88    2.42
   2   0  -6   30.76    2.50
   2   0   6   28.26    2.89
   2   0   6   26.44    1.26
   3   0   6    1.25    1.24
   3   0  -6    1.30    1.03
   3   0   6    0.83    0.51
  -3   0   6    0.66    0.89
   4   0  -6   23.36    2.94
   4   0   6   24.30    3.29
  -4   0   6   27.60    3.07
  -5   0   6   30.31    3.57
   5   0  -6   34.41    4.07
   5   0   6   32.81    4.22
   6   0   6    6.68    2.71
  -6   0   6    7.82    2.57
   6   0  -6    7.22    2.75
  -7   0   6    1.18    2.43
   0  -1   6  790.13   17.90
   0   1   6  775.63   19.19
   0  -1   6  762.95   18.97
   0   1   6  783.92   17.67
  -1   1   6    9.91    1.38
   1  -1   6   12.00    1.23
  -1   1   6   13.61    1.64
   1   1   6   13.84    1.95
   1   1   6   12.96    1.01
  -1  -1   6   11.03    1.49
  -1  -1   6   14.31    1.41
   2   1  -6   59.52    3.13
   2  -1   6   57.00    3.70
  -2   1   6   65.23    3.31
   2  -1   6   61.37    2.32
  -2  -1   6   63.05    3.17
   2  -1  -6   61.18    2.79
   2   1   6   59.06    3.68
   3  -1   6   12.48    2.37
   3   1  -6   16.42    2.32
  -3   1   6   13.19    1.97
   3  -1   6   15.53    1.43
   3   1   6   15.15    2.40
   3  -1  -6   17.18    2.11
   4  -1   6   19.30    3.20
   4   1  -6   15.86    2.66
   4  -1  -6   17.47    2.56
  -4  -1   6   12.11    2.19
   4   1   6   15.08    2.75
   5  -1   6   29.08    4.04
  -5   1   6   32.62    3.62
   5   1  -6   35.23    4.22
  -5  -1   6   31.84    3.60
   5  -1  -6   44.41    4.43
   5   1   6   30.24    4.05
   6   1  -6    6.60    2.75
  -6   1   6    5.11    2.38
   6  -1   6    6.27    2.82
   6  -1  -6    7.53    2.63
  -6  -1   6    7.91    2.33
   6   1   6    7.41    2.72
   6   1   6    4.19    2.54
   0   2   6   55.87    3.00
   0  -2   6   48.59    2.48
   0   2   6   53.51    2.29
   0  -2   6   49.40    2.67
  -1   2   6  437.78   11.52
  -1   2   6  453.39   12.11
   1  -2   6  467.30   11.20
  -1  -2   6  442.98   11.71
   1   2   6  473.73   12.85
  -1  -2   6  461.77   11.48
   1   2   6  460.88   10.28
  -2   2   6  172.47    5.58
   2   2  -6  171.25    6.00
   2  -2   6  164.81    6.61
   2  -2   6  165.16    4.96
  -2   2   6  162.02    5.88
   2   2   6  162.02    6.45
   2  -2  -6  167.57    4.92
  -2  -2   6  168.76    5.88
   3  -2   6  167.86    7.10
   3  -2   6  168.36    5.14
   3   2  -6  155.36    6.41
   3   2   6  153.47    6.78
   3  -2  -6  170.05    5.59
   4  -2   6    0.26    1.39
   4  -2   6    2.94    1.09
   4   2  -6    3.48    1.77
  -4   2   6    0.94    1.27
  -4  -2   6    3.51    1.62
   4   2   6    2.99    1.69
   4  -2  -6    2.85    1.48
   5  -2   6   52.31    5.42
  -5   2   6   45.85    4.52
   5   2  -6   56.81    5.39
   5  -2  -6   57.65    4.70
   5   2   6   48.87    4.77
  -5  -2   6   43.22    4.16
   6  -2   6    2.54    2.26
  -6   2   6    3.14    2.21
   6   2  -6    0.36    2.42
  -6  -2   6    7.51    2.45
   6   2   6    0.95    2.63
   0  -3   6    5.93    1.29
   0   3   6    6.03    1.06
   0  -3   6    5.00    1.13
   1  -3   6   49.57    2.57
  -1   3   6   58.86    3.08
  -1   3   6   52.94    2.85
   1   3   6   49.55    3.25
  -1  -3   6   55.04    2.96
  -1  -3   6   57.46    2.53
   1   3   6   53.30    1.91
   2  -3   6  120.00    4.20
   2   3  -6  109.69    4.90
  -2   3   6  117.52    4.84
  -2  -3   6  121.53    4.75
   2   3   6  116.58    5.36
   3  -3   6   16.49    1.85
   3   3  -6   12.46    2.41
  -3   3   6   14.80    2.22
   3  -3   6   16.87    2.88
   3   3   6   12.51    2.32
   3  -3  -6   11.51    1.57
   4  -3   6   27.10    2.52
   4  -3   6   26.83    3.74
  -4   3   6   23.06    3.12
   4   3  -6   26.29    3.58
   4   3   6   26.28    3.38
  -4  -3   6   21.91    2.76
   4  -3  -6   24.83    2.67
  -5   3   6   14.28    2.95
   5   3  -6    9.53    2.68
   5  -3   6    8.69    2.85
   5   3   6   11.05    2.59
  -5  -3   6    4.79    1.99
   5   3   6    6.02    2.47
   6   3  -6    0.00    2.07
  -6   3   6   -0.47    1.92
   6  -3   6    0.65    2.44
   6   3   6   -0.44    2.20
  -6  -3   6   -1.39    1.58
   0  -4   6  622.57   15.29
   0   4   6  601.51   14.53
  -1   4   6   56.38    3.23
  -1   4   6   50.19    2.89
   1  -4   6   53.75    2.88
  -1  -4   6   57.27    3.08
   1   4   6   51.83    3.48
   1   4   6   51.66    2.02
  -2   4   6    7.33    1.49
   2   4  -6    5.78    1.56
  -2   4   6    5.70    1.49
   2  -4   6    5.76    1.31
  -2  -4   6    7.60    1.49
   2   4   6    4.65    1.78
  -3   4   6   65.79    4.01
   3  -4   6   72.72    3.56
   3   4  -6   72.36    4.53
  -3  -4   6   70.32    4.05
   3   4   6   73.21    4.49
   3  -4  -6   69.86    2.83
  -4   4   6  103.14    5.52
   4   4  -6  103.16    5.88
   4  -4   6  110.06    4.68
   4  -4   6  111.61    6.32
   4   4   6  103.34    5.74
  -4  -4   6   94.41    5.02
   5  -4   6    7.15    2.58
  -5   4   6    1.04    1.55
   5   4  -6   -0.82    1.68
   5   4   6    6.38    2.52
   5   4   6   11.07    3.01
  -5  -4   6    6.60    2.14
  -6   4   6   -1.69    1.65
   6  -4   6    3.22    2.74
   6   4  -6    0.46    2.26
  -6  -4   6    2.07    2.10
   6   4   6    1.75    2.81
   0  -5   6   16.84    2.09
   0   5   6   16.93    1.80
  -1  -5  -6  250.70    6.54
  -1   5   6  246.69    8.51
   1  -5   6  256.17    7.84
  -1   5   6  254.84    7.80
   1   5   6  250.29    8.84
  -1  -5   6  256.02    8.02
   2   5  -6   52.96    4.35
  -2   5   6   45.76    3.24
   2  -5   6   42.15    2.73
   2   5   6   43.75    4.11
  -3   5   6   24.07    3.03
   3   5  -6   23.82    3.36
   3  -5   6   29.23    2.82
   3   5   6   25.83    3.51
  -3  -5   6   27.37    3.04
   3   5   6   27.10    3.30
   4   5  -6   23.09    3.51
  -4   5   6   24.47    3.46
   4  -5   6   35.35    3.30
   4   5   6   20.07    3.26
  -4  -5   6   26.53    3.17
   4   5   6   26.38    3.70
   5  -5   6   22.70    3.88
  -5   5   6   29.57    3.95
   5   5  -6   24.00    3.98
   5   5   6   29.10    4.17
   5   5   6   26.92    4.30
  -5  -5   6   30.97    3.68
  -6   5   6    2.90    2.25
   6  -5   6    1.12    2.54
   6   5  -6    1.02    2.69
  -6  -5   6    2.60    2.00
   6   5   6   -0.61    2.51
   0  -6   6    6.82    1.60
   0   6   6    5.72    1.31
   0   6   6    9.22    1.94
   1  -6   6    7.47    1.60
  -1  -6  -6    8.85    1.18
  -1   6   6    7.07    1.61
  -1  -6   6    8.33    1.63
   1   6   6    5.03    1.80
   2  -6   6   13.17    2.02
  -2   6   6   15.39    2.22
   2   6  -6   12.76    2.29
   2   6   6    9.63    2.41
  -2  -6   6   12.48    2.10
  -3   6   6   59.76    4.03
   3   6  -6   57.49    5.04
   3  -6   6   57.90    3.67
   3   6   6   51.12    4.58
  -3  -6   6   56.69    3.74
  -4   6   6   13.41    2.72
   4   6  -6   18.26    3.34
   4  -6   6   14.66    2.46
   4   6   6   15.74    3.21
  -4  -6   6   10.92    2.43
   4   6   6   15.38    3.18
   5  -6   6   -0.15    1.58
   5   6  -6    1.19    2.39
  -5   6   6    0.07    1.69
   5   6   6   -1.47    1.56
   5   6   6    3.07    2.53
  -5  -6   6    0.85    1.68
   6  -6   6    2.81    2.84
  -6   6   6    3.55    2.36
   6   6  -6    5.26    2.99
  -6  -6   6    3.69    2.22
   6   6   6    2.33    3.24
   0  -7   6  290.68    9.28
   0   7   6  290.81    8.53
   0   7   6  288.50   10.29
  -1   7   6   88.30    4.42
   1  -7   6   85.46    4.48
   1   7   6   94.59    5.38
  -1  -7   6   92.32    4.61
  -2   7   6   23.56    2.88
   2  -7   6   24.60    2.94
  -2   7   6   29.53    3.62
   2   7  -6   36.95    3.90
   2   7   6   33.06    4.03
  -3   7   6   19.03    3.26
   3  -7   6   20.18    2.87
  -3   7   6   18.16    3.01
   3   7  -6   20.46    3.20
   3   7   6   23.15    3.45
   3   7   6   15.08    2.81
  -3  -7   6   16.96    2.57
  -4   7   6  114.79    6.39
   4   7  -6  118.76    7.05
   4  -7   6  121.96    5.83
   4   7   6  115.89    6.91
  -4  -7   6  107.23    5.87
   4   7   6  128.24    6.86
   5  -7   6   16.33    2.98
   5   7  -6   21.36    4.22
  -5   7   6   17.23    3.18
  -5  -7   6   19.36    3.16
   5   7   6   18.88    4.19
   5   7   6   18.74    4.03
  -6   7   6    1.84    2.24
   6   7  -6   -0.64    2.43
   6  -7   6    0.87    2.83
   6   7   6    1.41    2.84
  -6  -7   6    1.22    2.18
   0   8   6   19.03    3.06
   0  -8   6   28.64    3.18
   1  -8   6  140.44    6.09
  -1   8   6  134.03    6.65
  -1   8   6  131.43    5.72
  -1  -8   6  130.77    5.88
   1   8   6  128.10    6.67
  -2   8   6    7.47    2.08
  -2   8   6    6.99    2.29
   2  -8   6   10.16    2.11
   2   8  -6    9.42    2.29
  -2  -8   6    2.09    1.21
   2   8   6    8.78    2.57
  -3   8   6    1.30    1.51
   3   8  -6    0.66    1.64
  -3   8   6    1.57    1.84
   3  -8   6    1.60    1.49
   3   8   6    0.15    1.95
  -3  -8   6    1.03    1.45
   3   8   6    1.22    1.83
   4  -8   6    8.08    2.18
  -4   8   6    6.06    2.30
   4   8  -6   11.69    3.10
   4   8   6    5.86    2.68
  -4  -8   6    8.10    2.22
   4   8   6    3.45    2.61
   5  -8   6    6.28    2.33
  -5   8   6    4.11    2.25
   5   8  -6   10.32    3.32
   5   8   6    2.80    2.74
  -5  -8   6    3.09    2.20
   0   9   6   32.21    4.29
   0  -9   6   35.22    3.68
   1  -9   6   13.54    2.35
  -1   9   6   13.37    2.31
  -1   9   6   15.69    3.22
   1  -9  -6   16.68    2.58
   1   9   6   11.82    2.83
  -1  -9   6   17.32    2.64
   2   9  -6    0.39    1.50
  -2   9   6   17.56    2.88
   2  -9   6   13.07    2.53
  -2   9   6    9.86    2.60
   2   9   6    7.43    2.45
  -2  -9   6    9.60    2.18
   3   9  -6   85.87    5.79
   3  -9   6   85.30    5.27
  -3   9   6   78.06    6.60
  -3   9   6   90.00    5.68
   3   9   6   79.80    5.56
  -3  -9   6   82.56    5.01
   3   9   6   80.71    5.74
  -4   9   6    7.78    2.59
   4   9  -6    1.68    2.24
   4  -9   6   10.16    2.66
   4   9   6    4.91    2.96
   4   9   6    8.18    3.19
  -4  -9   6    7.56    2.35
   5   9  -6    2.01    2.46
   5  -9   6    0.42    2.16
  -5   9   6    2.36    2.32
  -5  -9   6   -0.12    1.83
   5   9   6   -0.63    2.89
   0 -10  -6    2.61    1.58
   0 -10   6    2.12    1.54
   0  10   6    4.47    2.13
   1 -10   6   18.35    2.94
  -1  10   6   10.75    2.76
   1  10   6   14.76    3.21
   1 -10  -6   16.81    2.67
  -1 -10   6   16.30    2.87
   2 -10   6   10.38    2.52
  -2  10   6    0.67    1.66
  -2  10   6   11.66    2.54
  -2 -10   6   11.76    2.63
   2  10   6   11.35    3.10
   2  10   6   11.48    2.49
   3  10  -6    3.47    2.05
   3 -10   6    1.40    1.59
  -3  10   6    1.37    2.37
  -3  10   6   -0.42    1.53
  -3 -10   6    0.41    1.44
   3  10   6    1.91    2.06
   3  10   6    3.08    2.28
   4 -10   6    4.57    2.50
  -4  10   6    4.64    2.23
   4  10  -6    7.00    3.07
  -4 -10   6    4.23    2.19
   4  10   6    3.19    2.88
   4  10   6    7.57    3.31
  -5  10   6    0.77    2.45
   5 -10   6    3.79    2.60
   5  10  -6    1.14    2.52
  -5 -10   6    5.47    2.61
   5  10   6    2.24    3.15
   0 -11  -6    6.68    1.86
   0 -11   6    8.51    2.32
   0  11   6    8.61    2.73
  -1  11   6   17.01    3.53
   1 -11   6   20.63    3.40
   1  11   6   21.50    4.07
  -1 -11   6   19.85    3.13
   1 -11  -6   17.76    2.93
   2 -11   6   24.12    3.50
  -2  11   6   34.21    4.67
  -2 -11   6   28.87    3.71
   2 -11  -6   27.11    3.62
   2  11   6   36.57    4.92
  -3  11   6    0.74    1.99
  -3  11   6    2.75    2.46
   3 -11   6    1.18    1.83
   3  11  -6    3.00    2.75
   3 -11  -6   -0.56    1.12
   3  11   6    0.56    2.29
  -3 -11   6    3.46    2.11
   3  11   6    4.05    2.51
   4  11  -6   10.95    3.35
  -4  11   6   10.72    3.13
   4 -11   6   16.02    3.47
   4  11   6   10.50    3.46
  -4 -11   6   19.54    3.50
   4  11   6   19.29    4.39
   0 -12   6   17.29    3.31
   0 -12  -6   17.55    2.87
   0  12   6   13.53    3.42
   1 -12   6   12.13    2.93
  -1  12   6   16.28    3.62
  -1 -12   6   12.15    2.66
   1 -12  -6    8.95    2.46
   1  12   6   12.77    3.20
   2 -12   6    6.16    2.47
  -2  12   6    1.11    2.31
  -2 -12   6   10.14    2.70
   2  12   6    6.12    3.02
   2 -12  -6    3.63    2.02
   3  12  -6   13.76    3.63
   3 -12   6    9.24    2.75
  -3  12   6   14.18    3.94
  -3 -12   6    6.46    2.50
   3 -12  -6    4.16    2.00
   3  12   6   11.37    3.55
   4 -12   6    4.95    2.63
   4  12  -6    0.45    2.41
   4 -12  -6    0.40    2.06
  -4 -12   6   -1.61    2.12
   0 -13   6   -1.73    1.59
   0  13   6    3.89    2.43
   0 -13  -6    4.04    2.14
  -1  13   6    3.69    2.78
   1 -13   6   -1.27    1.99
   1  13   6   -1.09    2.01
   1 -13  -6    2.59    2.06
  -1 -13   6    1.50    1.84
  -2  13   6   -0.65    2.23
   2 -13   6    2.57    2.28
  -2 -13   6   -0.65    1.91
   2  13   6    4.07    3.08
   2 -13  -6    0.03    2.09
   3 -13   6    9.32    3.24
  -3  13   6    7.14    3.47
   3  13   6    4.47    2.94
  -3 -13   6    8.46    2.78
   3 -13  -6    5.69    2.66
   0 -14   6   -0.83    1.78
   0 -14  -6   -1.07    1.74
   0  14   6    0.62    2.30
  -1  14   6    3.12    2.66
   1 -14   6    4.80    2.49
   1  14   6    3.53    2.98
   1 -14  -6    1.33    2.16
  -1 -14   6   -0.70    1.54
   2 -14   6    1.49    2.44
  -2  14   6    0.36    2.43
  -2 -14   6    3.25    2.30
   2  14   6    3.57    3.30
   2 -14  -6    2.81    2.20
   0   0   7   -1.01    0.55
   0   0   7    1.03    0.75
  -1   0   7  250.63    7.50
   1   0   7  264.25    6.64
  -1   0   7  254.02    7.44
   2   0  -7  187.43    5.95
   2   0   7  172.49    7.00
  -2   0   7  174.46    6.29
   2   0   7  184.51    4.70
  -3   0   7    0.01    0.90
   3   0  -7    1.27    1.05
   3   0   7   -1.16    0.96
   4   0   7   48.47    5.01
   4   0  -7   45.73    4.18
  -4   0   7   45.73    3.96
   5   0  -7   17.71    3.21
  -5   0   7   13.65    2.65
   5   0   7   17.15    3.49
   6   0  -7   17.53    3.75
   6   0   7   14.21    3.51
  -6   0   7   13.46    3.14
   0  -1   7   27.31    1.90
   0   1   7   31.28    2.82
   0  -1   7   33.86    2.27
   0   1   7   26.66    1.79
   1  -1   7  111.13    3.66
  -1   1   7  114.33    4.32
  -1   1   7  104.44    4.21
  -1  -1   7  108.78    4.30
   1   1   7  107.05    3.30
  -1  -1   7  115.51    4.06
  -2   1   7  103.32    4.47
   2   1  -7  106.27    4.41
   2  -1   7   96.31    4.96
   2  -1   7   99.98    3.35
   2   1   7  105.99    2.63
   2   1   7  107.66    5.22
  -2  -1   7  102.93    4.50
   3  -1   7   48.45    2.15
   3   1  -7   48.61    3.93
   3  -1   7   53.18    3.93
  -3   1   7   47.44    3.39
   3  -1  -7   51.25    3.02
  -3  -1   7   45.02    3.24
   3   1   7   43.41    4.12
  -4   1   7   -0.35    1.30
   4   1  -7    0.68    1.48
   4  -1   7    0.22    1.52
   4  -1  -7    0.39    1.54
   4   1   7    0.27    1.53
  -4  -1   7   -0.84    0.75
   5  -1   7   34.41    4.62
  -5   1   7   41.07    4.32
   5   1  -7   37.84    4.41
   5   1   7   40.24    4.76
   5  -1  -7   33.84    3.87
  -5  -1   7   29.19    3.51
   6  -1   7    9.42    3.30
   6   1  -7   13.64    3.56
  -6   1   7    6.33    2.37
  -6  -1   7    6.32    2.31
   6   1   7   10.12    3.31
   0   2   7  182.54    6.40
   0  -2   7  169.35    5.54
   0  -2   7  173.97    6.03
   0   2   7  178.32    5.23
   1  -2   7  127.07    4.33
  -1   2   7  126.20    4.69
  -1   2   7  133.47    4.98
  -1  -2   7  132.73    4.90
  -1  -2   7  135.17    4.56
   1   2   7  132.24    5.47
   1   2   7  126.70    3.64
   2  -2   7  101.15    4.87
  -2   2   7   97.04    4.02
  -2   2   7   91.41    4.27
   2   2  -7   86.91    4.19
   2  -2   7   88.83    3.36
   2   2   7   93.90    4.83
  -2  -2   7   87.33    4.17
   3   2  -7   18.43    2.63
  -3   2   7   18.50    2.51
   3  -2   7   17.95    2.82
   3  -2   7   14.79    1.58
   3  -2  -7   16.23    1.96
   3   2   7   15.27    2.58
  -3  -2   7   15.82    2.30
   4   2  -7   18.64    3.15
   4  -2   7    9.19    2.48
  -4   2   7   12.91    2.33
   4   2   7   15.72    2.97
   4  -2  -7   19.34    2.53
  -4  -2   7   15.98    2.53
   5  -2   7   32.33    4.36
   5   2  -7   33.68    4.29
  -5  -2   7   34.42    3.94
   5   2   7   39.48    4.63
   6   2  -7   11.52    3.26
  -6   2   7   12.01    2.89
   6  -2   7   17.97    3.97
  -6  -2   7   14.31    3.08
   6   2   7   14.12    3.59
   6   2   7   12.11    3.51
   0  -3   7  176.16    6.04
   0  -3   7  163.70    5.60
   0   3   7  172.85    5.24
   1  -3   7    5.66    1.19
  -1   3   7    8.87    1.52
  -1   3   7    5.32    1.30
   1  -3   7    5.97    1.45
  -1  -3   7    4.30    1.22
   1   3   7    9.90    1.82
   1   3   7    6.67    0.87
   2  -3   7   37.95    3.57
  -2   3   7   35.51    3.01
   2  -3   7   35.06    2.21
   2   3  -7   33.69    3.21
  -2  -3   7   36.99    3.11
   2   3   7   31.10    3.52
   3  -3   7   16.22    3.09
   3  -3   7   17.78    1.90
   3   3  -7   13.52    2.40
  -3   3   7   13.08    2.23
   3  -3  -7   14.47    1.73
   3   3   7   13.57    2.63
  -3  -3   7   12.78    2.18
   4  -3   7   31.23    2.69
   4   3  -7   31.77    3.89
   4  -3   7   32.20    4.32
  -4   3   7   33.19    3.74
   4   3   7   33.82    4.00
  -4  -3   7   26.00    3.09
   5  -3   7    3.83    2.31
   5   3  -7    7.31    2.54
  -5   3   7    5.98    2.36
  -5  -3   7    3.69    1.95
   5   3   7    3.57    2.25
   6   3  -7    3.14    2.61
  -6   3   7    2.34    2.29
   6  -3   7    1.96    2.50
   6   3   7   -0.08    2.45
  -6  -3   7    3.44    2.11
   0   4   7   64.26    2.94
   0  -4   7   64.68    3.36
  -1   4   7   61.62    3.56
  -1   4   7   57.71    3.10
   1  -4   7   55.11    3.02
   1   4   7   56.99    3.80
  -1  -4   7   59.83    3.14
  -1  -4   7   54.97    3.22
   1   4   7   57.81    2.25
   2   4  -7  129.29    5.63
   2  -4   7  123.13    4.76
  -2   4   7  126.87    5.36
  -2  -4   7  134.95    5.37
   2   4   7  121.03    5.93
   3  -4   7   38.03    2.63
  -3   4   7   32.99    3.47
   3   4  -7   37.61    3.82
   3  -4   7   34.29    4.00
  -3  -4   7   27.92    3.01
   3   4   7   46.41    4.42
  -4   4   7   38.06    3.98
   4  -4   7   37.59    4.54
   4   4  -7   50.04    5.03
   4  -4   7   38.04    3.17
  -4  -4   7   42.82    3.97
   4   4   7   50.24    5.01
   5   4  -7    8.52    2.87
  -5   4   7    8.97    2.72
   5  -4   7    5.03    2.43
   5   4   7    9.18    2.93
  -5  -4   7    9.93    2.38
   5   4   7    7.97    2.86
  -6   4   7    0.69    2.24
   6  -4   7    2.21    2.70
   6   4  -7    0.13    2.17
   6   4   7    1.50    2.49
  -6  -4   7    0.70    1.89
   0   5   7    1.16    0.87
   0  -5   7    0.36    0.84
   1  -5   7   69.40    3.62
  -1   5   7   70.09    4.03
  -1   5   7   66.23    3.57
   1   5   7   69.62    4.37
   1   5   7   69.81    2.67
  -1  -5   7   69.44    3.76
   2   5  -7   16.63    2.60
  -2   5   7   15.77    2.28
   2  -5   7   17.14    2.07
   2   5   7   19.56    3.03
  -2  -5   7   19.32    2.44
   3   5  -7   29.61    3.66
  -3   5   7   37.49    3.69
   3  -5   7   33.98    2.97
   3   5   7   35.86    4.25
   4  -5   7   24.70    3.92
   4  -5   7   29.35    3.03
   4   5  -7   34.10    4.31
  -4   5   7   23.66    3.32
   4   5   7   29.34    4.09
   4   5   7   26.04    3.74
  -4  -5   7   26.58    3.40
  -5   5   7    2.95    2.06
   5  -5   7    2.15    2.47
   5   5  -7    5.95    2.55
  -5  -5   7    5.71    2.02
   5   5   7    7.72    2.84
   5   5   7    5.26    2.52
  -6   5   7   -0.28    1.57
   6   5  -7    9.74    3.22
   6  -5   7    9.84    3.28
  -6  -5   7    7.66    2.45
   6   5   7    2.47    2.85
   0   6   7   39.09    2.56
   0  -6   7   39.43    3.48
   0   6   7   42.97    4.15
  -1  -6  -7   11.22    1.32
   1  -6   7   10.39    1.86
  -1   6   7   14.36    2.38
  -1   6   7   11.36    1.92
   1   6   7    9.68    2.33
  -1  -6   7   10.03    1.89
   2   6  -7  135.47    6.18
   2  -6   7  128.47    5.48
  -2   6   7  144.58    6.04
   2   6   7  128.32    6.61
  -2  -6   7  131.64    5.79
  -3   6   7   77.12    4.82
  -3   6   7   74.53    4.60
   3  -6   7   74.64    4.16
   3   6  -7   78.87    5.06
   3   6   7   72.92    4.78
  -3  -6   7   71.40    4.42
   4  -6   7    9.96    2.17
   4   6  -7   10.09    2.76
  -4   6   7    8.62    2.40
  -4   6   7   11.10    2.58
  -4  -6   7    6.30    2.11
   4   6   7   10.89    3.09
   4   6   7   11.97    2.97
   5   6  -7    2.11    2.11
   5  -6   7   -0.20    2.27
  -5   6   7   -0.77    1.80
   5   6   7    0.19    2.28
  -5  -6   7    0.56    1.47
   5   6   7    1.93    2.48
   6   6  -7    0.46    2.76
   6  -6   7   -1.34    2.55
  -6   6   7    1.51    2.43
  -6  -6   7    3.24    2.21
   6   6   7    2.67    3.42
   0   7   7   17.20    2.87
   0  -7   7    9.07    1.89
   0   7   7   15.43    2.00
  -1   7   7   20.05    2.59
  -1   7   7   19.01    3.08
   1  -7   7   25.04    2.92
  -1  -7   7   21.59    2.75
   1   7   7   23.89    3.47
  -2   7   7   27.27    3.58
   2  -7   7   22.73    2.70
   2   7  -7   30.91    3.63
  -2   7   7   33.17    3.52
  -2  -7   7   25.47    3.09
   2   7   7   23.42    3.46
   3  -7   7   45.38    3.96
   3   7  -7   37.81    4.32
  -3   7   7   41.20    4.24
  -3   7   7   39.14    4.32
   3   7   7   42.38    4.41
  -3  -7   7   39.94    4.01
   3   7   7   36.35    4.56
   4   7  -7   17.83    3.48
  -4   7   7   15.20    3.11
  -4   7   7   17.19    3.05
   4  -7   7   21.02    3.07
   4   7   7   18.56    3.45
  -4  -7   7   19.61    3.25
   4   7   7   17.83    3.64
   5   7  -7   -1.44    2.01
  -5   7   7    0.50    1.74
  -5  -7   7   -0.22    1.65
   5   7   7    5.41    3.02
   5   7   7    1.17    2.55
   6  -7   7   -0.31    2.67
  -6   7   7   -0.04    2.15
   6   7  -7   -1.06    2.91
   6   7   7   -0.83    2.35
  -6  -7   7   -1.93    1.90
   0  -8   7   76.39    4.52
   0   8   7   75.04    5.14
  -1   8   7   59.06    5.27
   1  -8   7   57.05    4.01
  -1   8   7   61.73    3.94
   1   8   7   65.96    5.75
  -1  -8   7   65.21    4.15
   2  -8   7    5.65    1.91
  -2   8   7    4.89    1.85
  -2   8   7    5.50    2.11
  -2  -8   7    1.01    1.35
   2   8   7   -0.57    1.79
   3  -8   7   16.58    2.91
  -3   8   7   14.65    3.09
  -3   8   7   13.96    2.83
   3   8  -7   12.97    2.87
  -3  -8   7   15.44    2.78
   3   8   7   10.99    2.68
   3   8   7   10.51    2.86
  -4   8   7    0.10    1.77
  -4   8   7    2.34    1.85
   4  -8   7    3.75    2.01
   4   8  -7    4.50    2.39
  -4  -8   7    5.30    2.02
   4   8   7    0.50    2.23
   4   8   7   -0.04    2.12
   5   8  -7    4.16    3.12
  -5   8   7    2.52    2.26
   5  -8   7    3.60    2.28
  -5  -8   7    1.53    2.05
   5   8   7    3.03    2.84
   0   9   7   49.69    5.08
   0  -9   7   56.65    4.02
  -1   9   7   12.09    2.38
  -1   9   7   12.93    2.87
   1  -9   7   18.97    2.95
   1   9   7   19.28    3.44
  -1  -9   7   11.52    2.49
   2  -9   7    6.08    2.04
  -2   9   7    2.59    2.21
  -2   9   7    7.07    2.13
   2   9   7    7.19    2.75
  -2  -9   7    4.86    1.73
  -3   9   7   22.94    3.55
   3   9  -7   25.69    3.99
  -3   9   7   25.06    4.06
   3  -9   7   27.07    3.61
  -3  -9   7   22.37    3.37
   3   9   7   25.97    3.74
   3   9   7   20.20    3.82
   4   9  -7    7.15    3.13
   4  -9   7    8.16    2.59
  -4   9   7    5.39    2.67
  -4   9   7    3.55    2.37
   4   9   7    7.53    2.95
  -4  -9   7    5.31    2.28
   4   9   7    4.95    3.01
   5   9  -7    2.88    2.53
  -5   9   7    0.22    2.04
   5  -9   7    1.65    2.23
   5   9   7    2.13    3.16
  -5  -9   7   -0.42    1.72
   0 -10  -7   16.74    2.60
   0 -10   7   17.33    2.97
   0  10   7   17.50    3.38
   1 -10   7    9.26    2.33
  -1  10   7    9.38    3.03
   1  10   7    7.51    2.58
  -1 -10   7    4.09    1.88
   1 -10  -7    9.40    2.19
  -2  10   7    1.82    2.20
   2 -10   7    0.73    1.54
  -2  10   7   -1.17    1.40
  -2 -10   7    0.09    1.13
   2  10   7   -0.30    1.80
   3 -10   7   -0.94    1.74
   3  10  -7    1.01    2.13
  -3  10   7    2.78    2.21
  -3  10   7   -0.34    2.04
   3  10   7    3.99    2.44
   3  10   7    1.33    2.17
  -3 -10   7    3.74    1.90
  -4  10   7    6.75    2.80
   4 -10   7    9.79    2.62
   4  10  -7    6.91    2.90
  -4  10   7    6.51    2.79
   4  10   7   12.25    3.63
  -4 -10   7    9.45    2.66
   4  10   7    8.91    3.40
  -5  10   7    3.27    2.84
  -5 -10   7    6.67    2.84
   0  11   7    0.54    1.82
   0 -11  -7   -0.30    1.51
   0 -11   7   -1.32    1.56
   1 -11   7    6.71    2.25
  -1  11   7   10.12    3.05
  -1 -11   7    9.21    2.44
   1 -11  -7   12.95    2.65
   1  11   7    4.28    2.48
   2 -11   7   66.54    5.80
   2  11   7   72.92    7.01
   2 -11  -7   64.26    5.57
  -3  11   7    2.81    2.58
   3  11  -7    0.74    2.14
   3 -11   7    3.71    2.23
  -3  11   7   -0.32    1.76
   3  11   7    3.83    2.80
  -3 -11   7    4.32    2.29
   4  11  -7    5.34    3.47
  -4  11   7    2.60    2.73
   4 -11   7   -1.81    2.10
  -4 -11   7    0.28    1.85
   4  11   7    0.07    2.76
   4  11   7    3.56    3.10
   0 -12  -7   11.58    2.55
   0  12   7   10.17    3.39
   0 -12   7    9.40    2.64
  -1  12   7    1.71    2.22
   1 -12   7    0.22    1.81
  -1 -12   7    0.32    1.65
   1 -12  -7    0.67    1.80
   1  12   7   -1.21    2.27
  -2  12   7    1.35    2.65
   2 -12   7    2.99    2.14
   2 -12  -7    1.64    2.03
   2  12   7    3.61    2.77
  -2 -12   7    0.35    1.70
  -3  12   7   14.97    3.83
   3 -12   7   12.09    3.28
  -3 -12   7   12.66    3.04
   3  12   7   10.07    3.59
   3 -12  -7    6.82    2.58
   0  13   7    3.34    2.62
   0 -13   7    5.55    2.38
   0 -13  -7    6.55    2.42
  -1  13   7    4.07    3.05
   1 -13   7    8.58    2.53
   1 -13  -7    0.44    1.96
  -1 -13   7    6.50    2.34
   1  13   7    5.52    3.20
  -2  13   7    6.28    3.26
   2 -13   7    1.81    2.39
   2 -13  -7    4.74    2.55
  -2 -13   7    4.55    2.45
   2  13   7    7.16    3.22
  -3  13   7   15.69    4.31
   3 -13   7   17.91    3.78
   3  13   7   21.49    4.96
  -3 -13   7   10.81    3.05
   3 -13  -7   14.76    3.44
   0 -14   7    4.05    2.59
   0  14   7   -0.38    2.06
   1 -14   7    0.33    2.30
  -1  14   7   -0.64    2.55
  -1 -14   7    2.48    2.28
   1 -14  -7    2.90    2.54
   1  14   7    3.51    3.39
   0   0   8  262.26    7.42
   0   0   8  265.94    8.39
  -1   0   8  180.67    6.03
   1   0   8  171.83    5.05
   2   0   8  109.35    5.54
   2   0   8  106.17    3.27
  -2   0   8  104.64    4.78
   3   0  -8    1.79    1.19
  -3   0   8    1.94    1.26
   3   0   8    1.65    1.77
  -4   0   8  251.14    9.31
   4   0   8  260.63   10.47
   4   0  -8  258.44    9.07
   5   0  -8   46.73    4.72
   5   0   8   38.93    4.97
  -6   0   8    4.59    2.39
   6   0   8    2.90    2.73
   0   1   8   37.03    2.57
   0  -1   8   27.80    2.64
   0   1   8   30.05    2.32
   0  -1   8   24.46    2.14
   1  -1   8  178.46    5.29
  -1   1   8  168.27    5.87
  -1  -1   8  175.15    5.77
   1   1   8  173.86    4.88
  -1  -1   8  171.84    5.97
   2  -1   8   24.84    1.65
  -2   1   8   22.36    2.52
   2  -1   8   24.20    2.97
   2   1   8   27.87    3.28
   2   1   8   24.79    1.16
  -2  -1   8   24.25    2.67
  -3   1   8   10.33    2.00
   3  -1   8   12.81    2.71
   3   1  -8    8.55    1.91
   3   1   8    8.75    2.16
  -3  -1   8    7.14    1.77
   3  -1  -8    9.81    1.83
   4   1  -8   25.67    3.37
  -4   1   8   21.11    2.94
   4  -1   8   20.61    3.48
  -4  -1   8   19.30    2.87
   4  -1  -8   24.64    2.95
   4   1   8   21.56    3.62
   5  -1   8   15.66    3.58
  -5   1   8   12.67    2.59
   5   1  -8    7.41    2.55
  -5  -1   8   11.36    2.45
   5   1   8   13.74    3.20
   5  -1  -8   19.17    3.19
  -6   1   8    2.27    2.01
   6  -1   8    5.24    3.16
   6   1  -8    3.00    2.66
   6   1   8   -0.48    2.42
  -6  -1   8   -0.84    1.84
   0   2   8   40.79    2.33
   0   2   8   50.34    3.09
   0  -2   8   42.74    2.56
   0  -2   8   43.34    2.84
   1  -2   8  206.20    6.27
  -1   2   8  216.80    7.19
  -1   2   8  206.42    6.69
  -1  -2   8  195.13    6.71
  -1  -2   8  220.40    6.69
   1   2   8  211.45    5.54
  -2   2   8   42.12    3.02
   2  -2   8   46.60    4.22
   2  -2   8   41.50    2.30
  -2  -2   8   42.14    2.96
   2   2   8   39.74    3.84
   3  -2   8    6.92    1.23
   3  -2   8    5.35    2.01
   3   2  -8    5.81    1.89
  -3   2   8    4.95    1.69
   3   2   8    6.73    2.13
  -3  -2   8    5.72    1.60
   3  -2  -8    5.90    1.43
  -4   2   8    0.79    1.43
   4   2  -8    4.62    2.17
   4  -2   8    3.56    2.07
  -4  -2   8   -0.09    1.11
   4   2   8    2.19    1.92
   4  -2  -8    1.98    1.52
   5  -2   8    8.61    2.92
   5   2  -8    6.09    2.37
  -5   2   8   11.85    2.85
  -5  -2   8   12.21    2.63
   5   2   8    6.94    2.70
   6  -2   8    7.12    3.03
   6   2  -8    4.18    2.78
  -6   2   8    2.57    2.46
  -6  -2   8    5.47    2.52
   6   2   8    5.25    2.70
   0   3   8  859.93   22.01
   0   3   8  837.28   19.63
   0  -3   8  847.72   20.34
   0  -3   8  843.70   21.31
  -1   3   8  344.71   10.39
  -1   3   8  332.43    9.54
   1  -3   8  333.69   10.61
   1  -3   8  335.62    9.28
  -1  -3   8  332.66    9.79
   1   3   8  337.16    8.21
   1   3   8  331.57   10.84
  -1  -3   8  337.02    9.57
  -2   3   8  221.49    7.71
   2  -3   8  227.25    6.86
   2  -3   8  225.02    8.62
   2   3   8  245.09    8.90
  -2  -3   8  222.31    7.82
   3  -3   8   -0.16    1.44
  -3   3   8   -1.07    1.25
   3   3  -8    0.23    1.36
   3  -3   8    1.20    0.91
   3   3   8    1.45    1.52
  -3  -3   8    0.69    1.13
   4  -3   8   41.02    4.77
  -4   3   8   36.18    3.99
   4   3  -8   36.36    4.25
   4   3   8   38.71    4.52
   5  -3   8    6.73    2.72
  -5   3   8    2.35    2.16
   5   3  -8    4.63    2.50
   5   3   8    2.95    2.25
  -5  -3   8    4.33    1.84
   6   3  -8   -1.60    2.15
  -6   3   8   -0.55    1.85
   6  -3   8    0.23    2.31
   6   3   8    0.44    2.25
   6   3   8    3.29    2.69
  -6  -3   8    2.13    2.01
   0  -4   8  106.17    5.04
   0  -4   8   99.90    4.38
   0   4   8   96.03    3.83
   1  -4   8  130.81    5.00
  -1   4   8  131.47    5.07
  -1   4   8  119.70    5.43
   1  -4   8  130.51    5.70
   1   4   8  122.42    5.91
   1   4   8  124.29    3.86
  -1  -4   8  120.59    5.12
  -2   4   8   49.67    3.89
   2  -4   8   43.99    4.26
   2  -4   8   43.05    2.77
  -2  -4   8   31.63    3.16
   2   4   8   55.19    4.03
   3   4  -8    3.36    1.63
  -3   4   8    2.53    1.55
   3  -4   8    1.28    1.05
   3  -4   8    0.55    1.51
  -3  -4   8    1.15    1.32
   3   4   8    2.81    1.82
  -4   4   8   13.98    2.93
   4  -4   8   15.90    3.24
   4   4  -8   16.03    3.12
  -4  -4   8   14.07    2.41
   4   4   8   18.60    3.45
   5   4  -8    5.67    2.56
  -5   4   8    2.32    2.01
   5  -4   8    6.26    2.79
   5   4   8   10.21    3.12
   5   4   8    7.02    2.81
  -5  -4   8    7.05    2.16
  -6   4   8    2.52    2.02
   6   4  -8    8.98    3.63
   6  -4   8    1.37    2.47
   6   4   8    2.03    2.69
  -6  -4   8    3.05    2.22
   0   5   8   12.24    1.68
   0  -5   8    8.01    1.68
  -1   5   8   10.42    1.97
   1  -5   8    2.92    1.26
  -1   5   8    3.84    1.21
   1   5   8    4.24    0.95
   1   5   8    0.07    1.07
  -1  -5   8    4.43    1.38
  -2   5   8   63.97    3.90
   2  -5   8   66.79    3.66
   2   5   8   69.94    4.76
  -2  -5   8   61.16    3.84
  -3   5   8   20.52    2.92
   3  -5   8   21.36    3.54
   3   5  -8   25.22    3.51
   3  -5   8   17.45    2.32
  -3  -5   8   15.35    2.54
   3   5   8   18.02    3.23
   4  -5   8   51.52    3.53
   4   5  -8   40.46    4.61
  -4   5   8   48.26    4.69
   4  -5   8   43.24    4.98
  -4  -5   8   44.06    4.32
   4   5   8   47.46    5.17
   5  -5   8    0.94    2.25
   5   5  -8    2.11    2.52
  -5   5   8    2.13    2.20
  -5  -5   8    1.70    1.87
   5   5   8   -1.57    1.81
   5   5   8    4.75    2.73
   6  -5   8    1.78    2.78
  -6   5   8    1.23    2.44
   6   5  -8    2.42    2.80
   6   5   8    0.90    2.75
  -6  -5   8   -1.77    1.92
   0   6   8   30.58    3.70
   0  -6   8   32.39    3.26
   0   6   8   28.84    2.61
  -1   6   8   87.62    4.33
  -1   6   8   79.13    4.88
   1  -6   8   83.82    4.30
  -1  -6   8   86.28    4.51
   1   6   8   99.71    5.71
  -2   6   8   17.44    2.89
  -2   6   8   16.77    2.52
   2  -6   8   22.56    2.59
  -2  -6   8   18.88    2.81
  -3   6   8    2.05    1.71
   3  -6   8    2.05    1.44
  -3   6   8    1.15    1.64
   3   6  -8    1.10    1.66
   3   6   8    1.01    1.82
  -3  -6   8    0.84    1.15
   3   6   8    1.92    1.66
  -4   6   8   22.56    3.46
   4   6  -8   20.41    3.80
   4  -6   8   21.39    4.05
   4  -6   8   20.81    2.77
  -4   6   8   16.42    3.12
   4   6   8   20.90    3.63
  -4  -6   8   22.18    3.17
   4   6   8   21.49    3.80
   5   6  -8    0.85    2.23
   5  -6   8    0.88    2.34
  -5   6   8    0.81    1.85
   5   6   8    2.38    2.60
  -5  -6   8   -0.07    1.79
   5   6   8   -2.66    2.30
  -6   6   8    2.85    2.38
   6  -6   8    2.23    2.60
   6   6  -8    3.30    3.05
   6   6   8    2.54    3.28
  -6  -6   8    0.45    1.90
   0  -7   8    6.49    1.91
   0   7   8    9.89    1.81
   0   7   8   11.56    2.60
  -1   7   8   22.21    3.32
   1  -7   8   19.89    2.77
  -1   7   8   18.25    2.48
  -1  -7   8   21.50    2.89
   1   7   8   22.83    3.59
   2  -7   8    9.13    2.08
  -2   7   8   13.17    2.44
  -2   7   8   10.79    2.75
  -2  -7   8    9.38    2.31
   2   7   8   11.40    2.78
   3   7  -8   40.36    4.53
  -3   7   8   29.58    3.92
   3  -7   8   40.94    3.76
  -3   7   8   40.22    4.06
   3   7   8   40.00    4.82
   3   7   8   43.15    4.37
  -4   7   8    3.80    2.20
   4  -7   8    5.48    2.01
   4   7  -8    4.56    2.54
  -4   7   8    6.66    2.32
   4   7   8    6.36    2.68
  -4  -7   8    9.10    2.48
   4   7   8    5.70    2.87
   5  -7   8   -0.15    2.41
  -5   7   8    1.34    2.23
   5   7  -8    0.38    2.21
   5   7   8    1.29    2.59
   5   7   8    5.56    2.83
  -5  -7   8    4.13    2.06
   0   8   8    4.73    2.06
   0   8   8    2.96    1.28
   0  -8   8    2.60    1.60
  -1   8   8    2.13    1.46
  -1   8   8   -1.08    1.05
   1  -8   8    2.38    1.58
   1   8   8    3.05    1.93
  -1  -8   8    2.47    1.47
  -2   8   8   95.53    5.40
  -2   8   8   92.09    5.88
   2  -8   8  102.46    5.29
  -2  -8   8   88.85    5.23
   2   8   8   96.80    6.46
  -3   8   8   41.49    4.31
  -3   8   8   36.34    4.52
   3  -8   8   43.21    4.21
   3   8  -8   47.28    5.12
   3   8   8   36.61    4.32
   3   8   8   32.89    4.62
  -4   8   8   31.10    4.02
   4  -8   8   30.12    3.74
  -4   8   8   23.18    3.85
   4   8  -8   27.76    4.52
  -4  -8   8   28.17    3.89
   4   8   8   28.95    4.77
   4   8   8   36.12    4.94
   5   8  -8   -0.88    2.23
  -5   8   8    1.92    2.54
  -5  -8   8    2.44    2.14
   5   8   8    4.37    2.97
   5   8   8    4.26    3.13
   0  -9  -8   16.69    2.45
   0   9   8   18.53    3.40
   0  -9   8   15.16    2.70
  -1   9   8   40.94    3.81
  -1   9   8   38.87    4.65
   1  -9   8   40.04    4.03
   1   9   8   37.18    4.81
  -1  -9   8   33.32    3.75
   2  -9   8   23.66    3.49
  -2   9   8   18.66    3.50
  -2   9   8   23.06    3.29
   2   9   8   21.63    3.91
  -2  -9   8   20.37    3.24
  -3   9   8   12.00    2.83
   3  -9   8    8.22    2.37
  -3   9   8    9.36    2.82
   3   9  -8   12.30    3.06
  -3  -9   8   13.19    2.86
   3   9   8   12.73    3.13
   3   9   8   11.74    3.35
   4   9  -8    1.82    2.43
   4  -9   8    3.06    2.20
  -4   9   8    2.98    2.36
  -4   9   8    0.89    2.11
  -4  -9   8    5.02    2.28
   4   9   8    0.15    2.69
   4   9   8    1.20    2.49
   5   9  -8    0.37    2.55
  -5   9   8   -0.88    1.92
   5   9   8   -0.22    2.75
  -5  -9   8    0.23    2.02
   0  10   8    3.48    2.28
   0 -10  -8    2.26    1.48
   0 -10   8    1.18    1.62
  -1  10   8    7.86    2.67
  -1  10   8   15.00    2.66
   1 -10   8    9.06    2.40
   1 -10  -8   11.51    2.49
  -1 -10   8    7.10    2.29
   1  10   8   10.98    3.27
  -2  10   8    3.54    2.35
  -2  10   8    1.24    1.82
   2 -10   8    0.53    1.76
  -2 -10   8    1.59    1.51
   2  10   8    0.19    2.07
  -3  10   8   14.01    3.69
   3 -10   8   18.11    3.10
  -3  10   8   20.69    3.63
  -3 -10   8   12.32    2.92
   3  10   8   23.95    4.57
   4  10  -8   -2.32    2.22
  -4  10   8    0.41    2.20
   4 -10   8    0.22    2.06
  -4  10   8    0.67    2.00
  -4 -10   8    0.66    1.74
   4  10   8    0.82    2.83
   4  10   8    3.14    3.00
   0 -11  -8    8.33    2.22
   0  11   8    5.78    2.61
   0 -11   8    5.51    2.41
  -1  11   8    5.84    2.76
   1 -11   8    5.03    2.47
   1 -11  -8    3.14    1.90
  -1 -11   8    2.82    1.93
   1  11   8    0.50    2.29
  -2  11   8    8.02    2.77
   2 -11   8    8.14    2.71
  -2  11   8    7.04    2.83
  -2 -11   8    7.51    2.30
   2  11   8    6.77    2.86
   2 -11  -8    6.68    2.34
  -3  11   8    1.81    2.49
   3 -11   8    2.96    2.11
  -3  11   8    4.11    2.39
  -3 -11   8    3.16    2.11
   3  11   8    4.63    3.02
   4  11  -8    1.99    2.81
   4 -11   8   -0.15    1.97
  -4  11   8    2.82    3.01
  -4  11   8    0.05    2.16
  -4 -11   8    0.17    2.08
   4  11   8   -0.70    2.82
   0  12   8    2.87    2.48
   0 -12   8    0.56    1.95
  -1  12   8    1.85    2.47
   1 -12   8    0.41    2.04
   1 -12  -8    2.06    1.85
   1  12   8    0.01    2.14
  -1 -12   8    2.53    2.04
   2 -12   8    4.31    2.42
  -2  12   8   -0.19    2.11
  -2 -12   8    2.57    1.91
   2  12   8    3.41    2.70
   2 -12  -8    3.01    2.21
   3 -12   8    4.64    2.71
  -3  12   8    8.43    3.62
  -3  12   8   11.69    3.10
   3  12   8   11.16    3.63
   3 -12  -8    6.28    2.53
  -3 -12   8    5.12    2.51
   0  13   8   -1.09    2.45
   0 -13   8    0.12    2.22
  -1  13   8    0.28    2.84
   1 -13   8    3.61    2.34
   1 -13  -8    3.22    2.21
  -1 -13   8    3.88    2.21
   1  13   8    0.21    2.46
   2 -13   8    0.36    2.03
  -2  13   8   -2.51    2.69
   2  13   8    1.74    3.01
  -2 -13   8   -0.12    1.64
   2 -13  -8   -0.06    2.07
   0  14   8    2.44    2.88
   0 -14   8   -2.52    2.18
   1 -14   8    1.71    2.60
  -1  14   8    5.36    3.15
  -1 -14   8    4.27    2.68
   1 -14  -8    1.56    2.10
   1  14   8    1.60    2.79
   0   0   9    0.11    0.65
   0   0   9    0.71    0.85
   1   0   9   29.28    1.94
  -1   0   9   34.24    3.00
  -2   0   9  262.35    8.56
   2   0   9  260.83    6.67
   2   0   9  244.09    9.37
  -3   0   9    8.27    1.95
   3   0   9   11.00    2.64
   3   0  -9    9.00    1.87
   4   0   9  155.23    7.92
   4   0  -9  134.46    6.30
  -4   0   9  132.73    6.56
   5   0  -9    0.97    2.11
   5   0   9    0.00    2.23
  -5   0   9   -0.63    1.60
   6   0   9    1.57    2.74
  -6   0   9    2.97    2.12
   0  -1   9  103.68    4.08
   0   1   9   93.08    3.80
   0   1   9   93.99    4.59
   0  -1   9  102.81    4.66
  -1   1   9    2.13    1.10
   1  -1   9    1.44    0.82
   1   1   9    4.31    0.90
  -1  -1   9    4.64    1.29
  -2   1   9   35.40    3.28
   2  -1   9   37.57    4.06
   2  -1   9   35.44    2.03
   2   1   9   35.70    3.93
  -2  -1   9   33.26    3.16
  -3   1   9   54.85    4.50
   3  -1   9   53.71    5.14
   3   1  -9   50.21    4.10
  -3  -1   9   49.98    4.36
   3   1   9   50.23    4.88
   4  -1   9   29.61    4.30
   4   1  -9   31.04    3.67
  -4   1   9   30.60    3.60
   4  -1  -9   35.42    3.59
  -4  -1   9   29.95    3.47
   4   1   9   29.97    4.16
  -5   1   9   10.42    2.86
   5  -1   9   10.51    3.04
   5   1  -9    9.76    2.61
   5   1   9   11.61    3.11
  -5  -1   9    4.17    1.63
  -6   1   9    6.86    2.76
   6  -1   9    9.36    3.46
   6   1  -9   13.35    3.72
  -6  -1   9   17.47    3.50
   6   1   9    7.75    3.26
   0  -2   9   49.13    2.88
   0  -2   9   53.76    3.40
   0   2   9   49.40    2.66
   0   2   9   51.45    3.32
   1  -2   9  208.88    6.33
   1  -2   9  193.39    7.62
  -1   2   9  202.51    6.78
   1   2   9  200.54    5.57
  -1  -2   9  198.61    6.92
   2  -2   9   11.37    1.48
   2  -2   9    8.71    2.21
  -2   2   9   13.84    2.26
  -2  -2   9   11.49    2.00
   2   2   9   10.11    2.29
   3  -2   9    8.68    2.44
   3   2  -9   12.23    2.30
  -3   2   9    6.65    1.82
  -3  -2   9    6.21    1.76
   3   2   9    8.04    2.29
   4   2  -9   13.46    2.86
  -4   2   9   10.90    2.55
   4  -2   9    7.70    2.70
  -4  -2   9   10.80    2.35
   4   2   9   10.41    2.87
   5   2  -9   13.22    3.03
  -5   2   9   15.86    3.18
   5  -2   9    7.37    2.93
   5   2   9    9.26    3.05
  -5  -2   9    5.06    2.15
  -6   2   9    0.07    1.57
   6   2  -9    1.46    2.53
   6  -2   9    3.03    3.07
  -6  -2   9    0.16    2.02
   6   2   9    1.38    2.49
   0  -3   9    6.28    1.37
   0   3   9    7.84    1.37
   0   3   9    8.41    1.91
  -1   3   9  340.87   10.12
   1  -3   9  349.02    9.91
   1  -3   9  357.10   11.40
   1   3   9  360.36    8.85
  -1  -3   9  362.23   10.57
   1   3   9  371.74   11.80
   2  -3   9   13.38    1.78
   2  -3   9    9.61    2.34
  -2   3   9   11.88    2.25
   2   3   9   16.31    2.97
  -2  -3   9   14.35    2.35
   3  -3   9   19.71    3.42
   3   3  -9   11.18    2.35
  -3   3   9   12.79    2.46
   3  -3   9   18.18    2.01
   3   3   9   13.08    2.78
  -3  -3   9   17.60    2.61
   4  -3   9   11.57    3.09
   4   3  -9   10.58    2.59
  -4   3   9   19.03    3.28
  -4  -3   9   16.59    2.76
   4   3   9   12.96    3.20
   5   3  -9   14.99    3.35
   5  -3   9   14.37    3.54
  -5   3   9   11.68    3.12
   5   3   9    9.96    2.94
  -5  -3   9    8.52    2.32
   6  -3   9    2.14    2.74
   6   3  -9    2.36    2.60
  -6   3   9    0.28    2.22
   6   3   9    3.44    3.27
  -6  -3   9    3.57    2.05
   6   3   9   -1.89    2.21
   0  -4   9   11.05    1.77
   0   4   9   16.12    1.89
  -1   4   9   41.36    2.92
   1  -4   9   38.94    2.72
   1  -4   9   47.35    3.39
   1   4   9   53.30    4.89
   1   4   9   38.43    2.09
  -1  -4   9   44.60    3.78
   2  -4   9   80.67    3.84
  -2   4   9   78.04    4.29
   2  -4   9   74.67    5.02
  -2  -4   9   80.23    4.45
   2   4   9   85.07    5.24
   3  -4   9   15.50    3.09
   3  -4   9   20.00    2.31
  -3   4   9   13.98    2.44
   3   4  -9   14.36    2.79
   3   4   9   17.26    3.14
  -3  -4   9   17.17    2.57
   4  -4   9    7.48    2.88
   4   4  -9    9.43    2.65
  -4   4   9   16.26    3.09
  -4  -4   9   11.47    2.34
   4   4   9   14.40    3.17
   5   4  -9   10.77    3.05
  -5   4   9    5.32    2.41
   5  -4   9    9.79    3.20
   5   4   9   10.18    3.29
  -5  -4   9    7.51    2.42
   6   4  -9   -0.58    2.34
   6  -4   9    4.61    2.91
  -6   4   9    4.87    2.62
   6   4   9    4.49    2.88
   6   4   9   -0.78    3.00
  -6  -4   9    3.17    2.24
   0   5   9    0.88    1.13
   0  -5   9    3.48    1.35
   0   5   9    8.57    1.56
   1  -5   9   25.66    3.37
  -1   5   9   29.26    2.96
  -1   5   9   29.13    3.39
   1  -5   9   25.92    2.73
   1   5   9   30.45    3.90
  -1  -5   9   27.67    3.15
   1   5   9   25.95    1.81
   2  -5   9    4.16    1.42
   2  -5   9    7.42    2.11
  -2   5   9    4.68    1.67
  -2  -5   9    4.01    1.70
   2   5   9    3.34    1.95
   3  -5   9   32.98    4.33
   3  -5   9   30.20    3.03
  -3   5   9   35.54    3.82
   3   5  -9   31.81    3.86
  -3  -5   9   29.75    3.60
   3   5   9   33.34    4.36
   4  -5   9    1.33    2.17
   4   5  -9    4.93    2.32
  -4   5   9    1.54    1.79
   4   5   9    4.75    2.47
  -4  -5   9    0.34    1.01
  -5   5   9    6.34    2.77
   5  -5   9    2.22    2.49
   5   5  -9    1.32    2.19
   5   5   9    3.98    2.61
   5   5   9    6.84    2.98
  -5  -5   9    6.58    2.29
   6  -5   9    6.33    3.23
   6   5  -9    4.56    3.02
  -6   5   9    7.87    3.22
   6   5   9    6.46    3.38
  -6  -5   9    4.59    2.48
   0   6   9    2.25    1.25
   0  -6   9    2.66    1.37
   0   6   9    1.73    1.65
  -1   6   9   90.55    5.33
   1  -6   9   93.82    4.68
  -1   6   9   86.24    4.43
   1   6   9   90.76    5.65
   1   6   9   88.14    3.78
  -2   6   9   50.57    4.74
  -2   6   9   57.66    4.74
   2  -6   9   54.59    3.65
  -2  -6   9   43.49    4.16
   2   6   9   42.22    4.93
   3  -6   9    2.80    1.49
   3   6  -9    5.12    2.17
   3  -6   9    2.30    2.04
  -3   6   9    1.40    1.72
  -3   6   9    0.21    1.39
  -3  -6   9    1.65    1.46
   3   6   9    1.59    2.04
   4  -6   9   10.15    3.17
   4  -6   9    7.24    2.05
   4   6  -9    4.01    2.40
  -4   6   9    3.53    2.37
   4   6   9    4.70    2.69
  -4  -6   9    1.66    1.68
   4   6   9    6.49    2.86
   5  -6   9    3.02    3.08
   5   6  -9    0.83    2.24
  -5   6   9    0.02    1.95
   5   6   9   -1.70    2.22
   5   6   9    1.84    2.55
  -5  -6   9    0.99    1.86
   0   7   9    4.19    2.15
   0   7   9    1.81    1.28
   0  -7   9    3.30    1.61
   1  -7   9   30.58    3.34
  -1   7   9   31.10    3.97
  -1   7   9   29.32    3.03
  -1  -7   9   29.31    3.45
   1   7   9   34.81    4.52
   2  -7   9   53.92    3.86
  -2   7   9   59.70    4.82
  -2   7   9   55.15    5.15
  -2  -7   9   51.33    4.55
   2   7   9   57.03    5.73
  -3   7   9   45.28    4.61
  -3   7   9   28.29    4.02
   3  -7   9   35.58    3.80
   3   7  -9   36.44    4.49
   3   7   9   43.18    5.53
   3   7   9   36.13    4.31
  -3  -7   9   36.23    4.11
   4  -7   9   -1.76    1.37
   4  -7   9   -2.84    1.88
  -4   7   9    0.65    2.15
   4   7  -9    0.27    2.20
  -4   7   9   -0.45    1.87
  -4  -7   9    2.11    1.99
   4   7   9   -2.42    2.25
   4   7   9    1.20    1.85
  -5   7   9    7.19    2.69
   5   7  -9    5.41    3.09
   5  -7   9    4.40    2.99
   5   7   9    6.04    3.22
   5   7   9    0.93    1.82
  -5  -7   9    6.82    2.54
   0   8   9   -1.13    1.55
   0  -8   9   -0.07    1.47
   0   8   9   -1.27    1.05
   1  -8   9   51.06    4.48
  -1   8   9   53.35    4.29
  -1   8   9   34.57    4.25
   1   8   9   37.01    4.71
  -1  -8   9   46.80    4.39
  -2   8   9   27.02    3.43
   2  -8   9   25.07    3.18
  -2   8   9   18.95    3.54
   2   8   9   23.26    3.28
   2   8   9   22.97    4.01
  -2  -8   9   25.36    3.54
  -3   8   9   13.03    3.18
  -3   8   9   30.27    3.94
   3  -8   9   23.20    3.26
   3   8   9   14.25    3.46
  -3  -8   9   17.80    3.09
   3   8   9   23.36    3.83
   4   8  -9    2.58    2.78
   4  -8   9    0.66    1.82
  -4   8   9    2.35    2.64
  -4   8   9    2.79    2.17
   4   8   9    3.74    2.87
  -4  -8   9    2.11    2.07
   4   8   9    1.28    2.42
  -5   8   9   -0.78    1.94
   5  -8   9   -0.90    2.55
   5   8  -9   -0.94    2.27
   5   8   9    0.05    2.69
   5   8   9   -0.55    2.92
  -5  -8   9    0.72    2.08
   0  -9  -9   19.27    2.61
   0   9   9   12.60    3.14
   0  -9   9   17.28    2.81
   1  -9   9   46.16    4.52
  -1   9   9   54.78    4.46
   1   9   9   45.57    5.43
  -1  -9   9   45.81    4.58
  -2   9   9   20.10    3.23
  -2   9   9   18.85    3.77
   2  -9   9   18.03    3.05
   2   9   9   17.28    3.76
  -2  -9   9   20.93    3.28
  -3   9   9    4.23    2.35
  -3   9   9    1.46    2.11
   3  -9   9    3.58    2.07
  -3  -9   9    0.50    1.45
   3   9   9    1.41    2.26
   3   9   9    1.82    2.55
   4  -9   9    1.64    2.12
  -4   9   9   -0.81    2.28
   4   9  -9    0.26    2.17
  -4   9   9   -0.43    1.67
   4   9   9    1.42    2.68
   4   9   9   -1.19    2.81
  -4  -9   9    0.31    1.85
   0  10   9   24.61    4.21
   0 -10   9   20.86    3.35
   0 -10  -9   22.83    2.94
  -1  10   9   -0.36    2.06
   1 -10   9    1.46    1.81
  -1  10   9    0.37    1.68
  -1 -10   9    0.14    1.76
   1  10   9    1.54    2.34
  -2  10   9    1.55    2.00
  -2  10   9    3.37    2.71
   2 -10   9    3.12    2.16
   2  10   9    3.75    2.67
  -2 -10   9    4.93    2.11
   3 -10   9   -0.39    1.89
  -3  10   9    2.15    2.65
  -3  10   9   -1.46    1.94
  -3 -10   9   -0.43    1.31
   3  10   9   -2.84    2.03
  -4  10   9   -1.06    2.25
  -4  10   9    2.02    2.68
   4 -10   9    2.99    2.34
   4  10  -9    1.20    2.60
   4  10   9   -0.37    2.48
  -4 -10   9    0.62    1.99
   4  10   9    3.68    3.13
   0 -11   9    0.10    1.89
   0  11   9   -3.09    1.70
  -1  11   9    7.74    3.11
   1 -11   9    7.65    2.42
  -1 -11   9    7.11    2.61
   1  11   9    4.40    2.54
   1 -11  -9    6.75    2.24
  -2  11   9   21.02    3.65
   2 -11   9   18.19    3.55
  -2  11   9   16.43    3.83
  -2 -11   9   11.66    3.07
   2  11   9   12.63    3.75
  -3  11   9    0.35    2.74
   3 -11   9    3.96    2.33
  -3  11   9    3.44    2.54
   3  11   9   -1.26    2.51
  -3 -11   9    1.17    1.98
   0 -12   9    3.94    2.16
   0  12   9    6.84    2.98
  -1  12   9    4.71    3.00
   1 -12   9   -0.36    2.09
  -1 -12   9    2.32    2.39
   1  12   9    1.50    2.38
   1 -12  -9    0.76    1.92
  -2  12   9    0.97    2.27
   2 -12   9    3.84    2.48
   2 -12  -9    1.47    1.85
  -2 -12   9    0.05    1.97
   2  12   9   -0.18    2.25
  -3  12   9    7.15    3.08
  -3  12   9    4.07    3.33
   3 -12   9    7.44    2.98
  -3 -12   9    6.83    2.90
   3  12   9    4.74    3.19
   0 -13   9   -0.73    1.98
   0  13   9   -1.34    2.17
   1 -13   9    0.67    2.29
  -1  13   9    2.74    3.15
   1  13   9    5.14    3.08
   1 -13  -9    0.86    2.05
  -1 -13   9    1.16    2.41
  -2  13   9    1.59    2.64
   2 -13   9    0.61    2.67
   2 -13  -9   -0.60    2.15
   2  13   9   -2.55    2.55
  -2 -13   9    0.18    2.24
   0   0  10   98.64    4.13
   1   0  10   17.53    1.80
  -1   0  10   15.56    2.08
  -2   0  10    7.03    1.73
   2   0  10    5.46    1.99
   2   0  10    6.29    1.23
   3   0  10    0.53    1.71
  -3   0  10    0.15    1.28
   4   0 -10   59.40    4.80
   4   0  10   47.96    5.36
  -4   0  10   39.46    4.17
   5   0  10   -2.07    1.85
  -5   0  10    0.87    2.00
   6   0  10    1.53    2.82
  -6   0  10    0.42    1.89
   0  -1  10   -0.56    0.89
   0   1  10   -1.01    0.78
  -1   1  10   12.57    1.90
   1  -1  10   11.46    1.58
   1  -1  10   18.39    2.70
  -1  -1  10   13.76    2.07
   1   1  10   14.30    1.58
   2  -1  10  144.39    4.57
  -2   1  10  130.10    5.68
   2  -1  10  133.71    6.71
   2   1  10  124.44    6.49
  -2  -1  10  127.14    5.67
  -3   1  10    7.38    1.91
   3  -1  10    5.73    2.24
  -3  -1  10    4.73    1.71
   3   1  10    3.94    2.25
   4  -1  10    9.57    2.79
  -4   1  10    5.45    2.15
   4   1 -10   12.80    2.69
   4   1  10    9.02    2.73
  -4  -1  10    7.66    2.22
   4  -1 -10    8.30    2.20
   5   1 -10    1.97    2.36
  -5   1  10    3.54    2.19
   5  -1  10    3.19    2.76
   5   1  10    7.10    2.97
  -5  -1  10    5.47    2.17
   6  -1  10    9.53    3.71
  -6   1  10    7.56    2.94
  -6  -1  10    4.08    2.59
   6   1  10    6.06    3.25
   0   2  10    3.33    1.32
   0  -2  10    3.58    1.26
   0   2  10    4.53    1.24
   1  -2  10  197.96    7.63
  -1   2  10  178.64    6.55
   1  -2  10  182.31    6.09
   1   2  10  186.90    5.47
  -1  -2  10  187.50    6.90
   2  -2  10   39.05    2.37
  -2   2  10   33.57    3.28
   2  -2  10   29.89    3.78
   2   2  10   36.77    4.05
  -2  -2  10   31.87    3.29
   3  -2  10   82.72    5.81
  -3   2  10   87.19    5.08
  -3  -2  10   87.17    4.96
   3   2  10   76.31    5.53
   4   2 -10    2.87    1.91
   4  -2  10    0.08    1.75
  -4   2  10    1.17    1.56
   4   2  10    2.84    2.30
  -4  -2  10   -1.39    1.48
   5  -2  10    1.20    2.36
  -5   2  10   -2.12    1.65
   5   2 -10    1.06    2.35
  -5  -2  10    4.60    2.26
   5   2  10    2.12    2.57
   6  -2  10    0.92    2.78
   6   2 -10    0.83    2.67
  -6   2  10    0.90    2.36
  -6  -2  10    2.16    2.21
   6   2  10    1.16    3.01
   0  -3  10   11.50    1.84
   0   3  10   16.45    2.52
   0   3  10   15.42    1.88
  -1   3  10   42.98    3.02
   1  -3  10   41.36    4.07
   1  -3  10   46.64    2.87
   1   3  10   39.32    2.15
   1   3  10   40.01    4.17
  -1  -3  10   48.26    3.34
   2  -3  10  117.78    4.68
  -2   3  10  116.40    5.43
   2  -3  10  114.62    6.26
  -2  -3  10  117.90    5.57
   2   3  10  126.25    6.50
   3  -3  10    0.23    1.88
  -3   3  10   -0.86    1.35
   3   3  10    0.98    1.85
  -3  -3  10    2.74    1.55
   4  -3  10    5.99    2.73
  -4   3  10    0.51    1.68
   4   3 -10    3.06    2.00
  -4  -3  10    3.00    1.81
   4   3  10    4.07    2.23
   5   3 -10    2.27    2.53
  -5   3  10    1.23    1.89
   5  -3  10    5.46    2.66
   5   3  10   -0.81    2.21
  -5  -3  10    0.96    1.48
   6  -3  10    0.33    2.75
   6   3 -10    1.01    2.59
  -6   3  10    0.68    2.09
  -6  -3  10    3.61    2.33
   6   3  10    3.34    3.01
   0   4  10  125.61    6.29
   0   4  10  139.60    5.00
   0  -4  10  126.45    5.41
  -1   4  10   52.31    3.32
   1  -4  10   48.15    3.20
   1  -4  10   42.58    4.28
   1   4  10   47.43    2.42
   1   4  10   47.05    4.76
  -1  -4  10   55.90    3.59
  -2   4  10   43.16    3.86
   2  -4  10   34.31    3.04
   2  -4  10   38.41    4.26
  -2  -4  10   34.45    3.53
   2   4  10   36.03    4.27
   3  -4  10   25.05    3.83
   3  -4  10   24.95    2.62
  -3   4  10   30.61    3.70
  -3  -4  10   29.98    3.50
   3   4  10   27.97    4.15
   4   4 -10   77.32    6.45
  -4   4  10   80.41    5.36
   4  -4  10   72.33    6.78
   4   4  10   70.66    6.58
  -4  -4  10   90.92    5.57
   5  -4  10    7.36    3.06
  -5   4  10    9.61    3.06
   5   4 -10   10.96    3.30
   5   4  10   10.06    3.21
  -5  -4  10    4.84    2.18
  -6   4  10    3.34    2.80
  -6  -4  10    2.83    2.25
   0   5  10    1.58    1.67
   0   5  10   -0.43    0.90
   0  -5  10    0.73    1.28
  -1   5  10   65.68    3.85
   1  -5  10   69.38    3.96
  -1   5  10   67.13    4.56
   1  -5  10   71.24    4.59
   1   5  10   53.50    5.31
  -1  -5  10   64.79    4.05
   2  -5  10    1.73    1.44
   2  -5  10    6.04    1.71
  -2   5  10    6.71    2.21
  -2   5  10    6.13    1.85
  -2  -5  10    7.07    2.10
   2   5  10    9.58    2.69
  -3   5  10    3.88    2.05
  -3   5  10    2.19    2.00
   3  -5  10    3.70    1.53
   3  -5  10    1.48    1.94
  -3  -5  10    6.53    2.21
   3   5  10    6.35    2.60
   4  -5  10   14.36    3.62
   4   5 -10   21.04    3.69
  -4   5  10   20.47    3.39
  -4  -5  10   23.29    3.35
   4   5  10   24.77    4.20
   5  -5  10    4.41    2.91
  -5   5  10    7.03    2.73
   5   5 -10    2.87    2.77
   5   5  10    4.90    2.99
   5   5  10    3.55    2.64
  -5  -5  10   -1.47    1.49
   0  -6  10   48.14    4.08
   0   6  10   29.93    3.85
   0   6  10   42.32    2.90
   1  -6  10   14.70    2.40
  -1   6  10   10.81    2.80
  -1   6  10   11.69    2.21
   1  -6  10   11.01    2.43
   1   6  10   11.88    2.88
  -1  -6  10   14.88    2.56
   2  -6  10   20.35    2.58
  -2   6  10   21.36    3.30
  -2   6  10   17.56    2.81
   2  -6  10    5.15    2.24
   2   6  10    8.62    2.78
  -2  -6  10   19.51    2.81
   3  -6  10    4.32    1.82
   3  -6  10    5.61    2.55
  -3   6  10    8.89    2.46
  -3   6  10   11.06    2.86
  -3  -6  10    8.21    2.24
   3   6  10    6.40    2.72
  -4   6  10    2.40    2.25
   4  -6  10    1.95    2.52
   4   6 -10    3.33    2.43
   4   6  10    2.39    2.29
  -4  -6  10    0.50    1.61
   4   6  10    3.22    2.54
   5  -6  10   -0.40    2.19
   5   6 -10   -0.76    2.30
  -5   6  10   -0.60    1.79
  -5  -6  10    1.61    2.12
   5   6  10    0.81    2.73
   5   6  10    0.33    2.51
   0   7  10   28.70    2.80
   0   7  10   27.65    3.99
   0  -7  10   28.29    3.47
  -1   7  10   10.03    2.71
   1  -7  10    7.23    1.99
  -1   7  10    8.98    1.93
  -1  -7  10    5.41    1.85
   1   7  10    4.69    2.59
  -2   7  10   -0.22    1.61
  -2   7  10    5.32    2.38
   2  -7  10    5.95    1.86
  -2  -7  10    5.64    2.03
   2   7  10    2.41    2.22
  -3   7  10    9.44    2.87
   3  -7  10    9.10    2.99
  -3   7  10    7.32    2.25
   3  -7  10    7.13    2.16
   3   7  10    8.38    3.17
   3   7  10    7.89    2.63
  -3  -7  10    9.32    2.49
  -4   7  10    6.65    2.72
   4  -7  10    1.31    2.52
   4   7 -10    0.71    2.17
  -4  -7  10    0.41    1.61
   4   7  10    1.09    2.32
   4   7  10    5.48    2.70
  -5   7  10    5.32    2.59
   5   7 -10    6.54    3.23
   5  -7  10    9.64    3.38
   5   7  10    9.58    3.47
  -5  -7  10    8.95    2.89
   5   7  10   -0.44    2.43
   0   8  10   16.45    2.36
   0   8  10   15.62    3.48
   0  -8  10   10.02    2.34
  -1   8  10   58.36    4.08
  -1   8  10   54.96    5.61
   1  -8  10   64.25    4.44
   1   8  10   69.50    6.58
  -1  -8  10   69.07    4.64
  -2   8  10   11.07    2.95
   2  -8  10   11.50    2.48
  -2   8  10   13.24    2.70
   2   8  10   11.12    3.16
  -2  -8  10    6.76    2.23
  -3   8  10    1.20    1.84
   3  -8  10    6.33    2.24
  -3   8  10    4.11    2.52
   3   8  10    3.24    2.46
  -3  -8  10    3.54    1.89
   3   8  10    4.80    2.73
   4  -8  10   -1.59    1.98
  -4   8  10   -0.07    2.50
  -4   8  10    1.15    2.18
   4   8 -10    4.38    2.59
   4  -8  10    1.59    2.09
  -4  -8  10   -0.54    1.32
   4   8  10   -0.41    2.26
   4   8  10    0.88    2.60
   5   8 -10    2.81    3.20
   5  -8  10    2.27    2.75
  -5   8  10    4.87    2.57
  -5  -8  10    1.49    1.92
   5   8  10    3.85    3.50
   5   8  10    1.81    3.07
   0   9  10   33.86    4.92
   0  -9  10   35.45    4.21
   0   9  10   36.00    3.37
  -1   9  10    9.61    2.40
  -1   9  10    9.41    2.83
   1  -9  10   13.49    2.86
   1   9  10   12.32    3.58
  -1  -9  10   13.23    2.72
  -2   9  10    0.84    1.64
  -2   9  10   -0.07    2.09
   2  -9  10    2.94    1.76
  -2  -9  10    1.93    2.00
   2   9  10   -1.58    1.91
  -3   9  10   14.66    3.61
   3  -9  10   24.10    3.45
  -3   9  10   11.44    2.99
  -3  -9  10   15.84    3.05
   3   9  10   14.35    3.90
   4  -9  10   -0.51    2.04
  -4   9  10    1.35    2.78
  -4   9  10    3.87    2.52
   4   9  10    3.32    2.95
  -4  -9  10    1.40    1.97
   4   9  10    4.53    3.14
   0 -10  10    1.55    1.85
   0  10  10    8.72    3.03
   1 -10  10    0.57    1.92
  -1  10  10    3.51    2.04
  -1  10  10    3.38    2.40
   1  10  10    0.37    2.16
  -1 -10  10    1.68    1.81
   2 -10  10    1.83    1.91
  -2  10  10    0.30    2.23
  -2  10  10   -0.12    1.89
  -2 -10  10    0.87    1.98
   2  10  10   -1.83    1.93
   3 -10  10    2.48    2.17
  -3  10  10    3.09    2.78
  -3  10  10   -1.54    2.02
  -3 -10  10    0.69    1.88
   3  10  10    0.50    2.83
   4 -10  10    3.97    2.81
  -4  10  10    3.16    3.40
  -4  10  10    0.00    2.59
  -4 -10  10    1.55    2.11
   4  10  10    1.07    3.18
   0 -11  10    3.85    2.25
   0  11  10    3.50    2.63
  -1  11  10    2.07    2.59
   1 -11  10   -1.27    1.93
  -1 -11  10   -0.74    1.84
   1 -11 -10    4.44    1.99
   1  11  10    2.28    2.72
   2 -11  10    1.34    2.31
  -2  11  10    0.48    2.40
  -2  11  10    1.55    2.12
  -2 -11  10    2.86    2.33
   2  11  10    3.94    3.03
  -3  11  10    2.71    2.52
  -3  11  10    0.87    2.78
   3 -11  10    0.77    2.26
   3  11  10    1.05    3.04
  -3 -11  10   -0.86    1.69
   0  12  10    4.03    2.75
   0 -12  10    4.55    2.60
   1 -12  10   -2.35    2.03
  -1  12  10    1.05    2.56
   1 -12 -10    1.35    1.93
   1  12  10    2.69    2.60
  -1 -12  10    2.35    2.39
   2 -12  10    0.56    2.11
  -2  12  10   -1.97    2.82
   2  12  10    0.54    2.89
  -2 -12  10    0.25    2.22
   2 -12 -10    0.59    2.04
   0  13  10    0.92    2.98
   0 -13  10    2.74    2.45
  -1  13  10    2.88    3.22
   1 -13  10    0.64    2.55
   1  13  10    0.76    2.54
  -1 -13  10    1.63    2.19
   0   0  11   -0.59    0.80
   1   0  11    1.86    1.56
   1   0  11    4.18    1.15
  -1   0  11    5.66    1.46
   2   0  11    6.32    2.22
  -2   0  11    6.88    1.89
  -3   0  11   19.51    2.85
   3   0  11   20.23    3.69
   4   0  11    4.81    2.35
  -4   0  11    2.86    1.77
   5   0  11   10.56    3.71
  -5   0  11   14.82    3.32
   6   0  11    2.21    3.05
  -6   0  11    0.04    2.10
   0   1  11    0.43    1.04
   0  -1  11    1.56    1.05
   1  -1  11    3.52    1.17
  -1   1  11    4.73    1.50
   1  -1  11    2.91    1.90
  -1  -1  11    1.81    1.30
   1   1  11    4.73    1.20
   1   1  11    4.75    1.78
   2  -1  11   23.71    3.60
  -2   1  11   33.69    3.40
   2   1  11   24.01    3.54
  -2  -1  11   30.05    3.20
  -3   1  11   34.11    3.87
   3  -1  11   23.63    3.73
  -3  -1  11   31.83    3.71
   3   1  11   34.77    4.59
  -4   1  11   10.38    2.42
   4  -1  11    6.23    2.63
   4   1  11    7.87    2.65
  -4  -1  11    5.56    2.09
  -5   1  11    3.86    2.24
   5   1 -11    2.76    2.26
   5  -1  11   -1.01    2.45
  -5  -1  11    3.34    2.03
   5   1  11    2.70    2.68
   6  -1  11    1.47    3.13
  -6   1  11    1.03    2.21
  -6  -1  11    2.33    2.15
   6   1  11    5.35    3.44
   0   2  11   -0.22    1.22
   0   2  11   -0.48    1.00
   0  -2  11    1.02    1.15
   1  -2  11   24.34    2.47
  -1   2  11   23.60    2.75
   1  -2  11   21.17    3.18
   1   2  11   25.51    2.11
  -1  -2  11   19.13    2.56
   2  -2  11   11.58    1.71
  -2   2  11    6.10    1.75
   2  -2  11    6.50    2.41
   2   2  11    7.51    2.31
  -2  -2  11    5.74    1.80
   3  -2  11   -1.22    1.80
  -3   2  11    1.17    1.55
   3   2  11    0.33    1.72
  -3  -2  11   -0.96    1.24
  -4   2  11   -0.65    1.44
   4  -2  11    7.15    2.90
   4   2  11    6.44    2.59
  -4  -2  11    4.64    2.24
  -5   2  11    6.25    2.55
   5   2 -11   13.80    3.28
   5  -2  11   13.29    4.01
  -5  -2  11   12.84    2.93
   5   2  11   14.98    3.77
   0   3  11   22.20    2.33
   0   3  11   21.28    3.15
   0  -3  11   21.90    2.60
   1  -3  11   60.62    3.52
  -1   3  11   65.67    3.81
   1  -3  11   63.71    4.65
  -1  -3  11   70.57    4.01
   1   3  11   54.51    5.02
   2  -3  11   28.52    2.66
  -2   3  11   31.47    3.44
   2  -3  11   27.61    3.79
   2   3  11   30.44    4.04
  -2  -3  11   23.24    2.98
  -3   3  11    3.76    1.69
   3  -3  11    1.13    2.05
   3   3  11    1.77    1.95
  -3  -3  11    2.95    1.70
   4  -3  11   36.83    5.15
   4   3 -11   26.59    3.84
  -4   3  11   31.99    4.09
  -4  -3  11   22.05    3.36
   4   3  11   27.21    4.35
   5  -3  11   -1.47    1.92
  -5   3  11   -2.11    1.75
   5   3 -11    0.60    2.23
   5   3  11   -0.54    2.46
  -5  -3  11   -1.57    1.43
   0   4  11    2.95    1.27
   0  -4  11    4.97    1.55
   0   4  11    3.08    2.03
  -1   4  11   60.05    3.77
   1  -4  11   70.21    4.72
   1  -4  11   68.82    3.83
  -1   4  11   71.40    4.75
  -1  -4  11   61.38    3.97
   1   4  11   62.98    5.62
  -2   4  11   19.78    3.13
   2  -4  11   22.65    2.55
  -2   4  11   17.99    2.59
  -2  -4  11   20.72    2.89
   2   4  11   24.74    3.74
   3  -4  11   59.32    5.96
  -3   4  11   65.55    5.33
  -3   4  11   63.64    5.30
   3   4  11   59.25    6.06
  -3  -4  11   52.06    4.62
   4   4 -11    2.06    2.19
   4  -4  11    5.50    2.79
  -4   4  11    4.18    2.39
  -4  -4  11    2.93    1.80
   4   4  11    1.73    2.31
   5   4 -11    2.48    2.50
   5  -4  11    4.08    3.23
  -5   4  11    3.91    2.53
   5   4  11    5.52    2.92
  -5  -4  11    3.58    2.21
   0   5  11   20.69    2.35
   0  -5  11   20.55    2.73
   0  -5  11   19.92    3.24
   0   5  11   21.22    3.55
  -1   5  11   24.01    2.94
   1  -5  11   28.46    3.67
  -1   5  11   27.72    3.58
   1  -5  11   21.56    2.75
  -1  -5  11   26.50    3.20
   2  -5  11   31.19    4.14
   2  -5  11   43.11    3.70
  -2   5  11   50.18    4.44
  -2   5  11   45.26    4.51
   2   5  11   45.86    5.29
  -2  -5  11   52.65    4.70
  -3   5  11   42.20    4.41
  -3   5  11   37.85    4.39
   3  -5  11   49.24    3.90
   3  -5  11   40.50    4.99
   3   5  11   44.36    5.34
  -3  -5  11   37.41    4.13
  -4   5  11    4.02    2.32
   4  -5  11    8.04    3.02
   4   5  11    1.24    2.54
  -4  -5  11    6.01    2.30
   5   5 -11    3.69    2.75
   5  -5  11    4.68    3.21
  -5   5  11   -1.80    1.91
  -5  -5  11    1.94    1.56
   5   5  11   -2.28    2.31
   0  -6  11   26.76    3.36
   0   6  11   36.01    3.09
   0  -6  11   29.75    3.28
   1  -6  11   17.99    3.22
  -1   6  11   16.88    3.14
   1  -6  11   24.19    2.94
  -1   6  11   27.56    3.16
   1   6  11   22.39    3.98
  -1  -6  11   24.09    3.15
   2  -6  11   21.96    3.55
  -2   6  11   28.09    3.52
  -2   6  11   27.92    3.77
   2  -6  11   35.33    3.60
  -2  -6  11   19.79    3.01
   3  -6  11    4.54    1.70
   3  -6  11    1.69    2.09
  -3   6  11    6.47    2.51
  -3   6  11    2.97    2.36
  -3  -6  11    1.04    1.76
   3   6  11    2.31    2.32
   4  -6  11    0.52    2.32
  -4   6  11    1.80    2.05
   4   6  11    2.22    2.32
  -4  -6  11    1.51    1.84
   5  -6  11    3.85    2.84
  -5   6  11    2.90    2.67
   5   6 -11    5.57    2.91
   5   6  11    3.29    3.18
  -5  -6  11   -0.95    1.75
   5   6  11    0.07    2.95
   0   7  11    4.65    1.56
   0   7  11    6.33    2.46
   0  -7  11    5.77    2.21
   0  -7  11    6.97    2.18
  -1   7  11    8.54    2.12
   1  -7  11    2.97    1.97
  -1   7  11    9.22    2.73
   1  -7  11    7.22    2.15
   1   7  11    7.07    2.61
  -1  -7  11    4.56    1.88
   2  -7  11    3.90    2.27
  -2   7  11    2.99    2.03
  -2   7  11    1.52    1.82
   2  -7  11    3.93    1.89
  -2  -7  11    2.01    1.65
   2   7  11   -0.29    2.12
   3  -7  11    6.90    2.71
  -3   7  11   10.16    3.15
   3  -7  11    5.21    2.07
  -3   7  11   15.81    3.17
   3   7  11    8.45    2.61
   3   7  11   12.48    3.49
  -3  -7  11   11.36    2.67
  -4   7  11    4.19    2.34
   4  -7  11    0.62    2.69
   4   7  11   -0.93    2.15
  -4  -7  11    3.26    2.05
   4   7  11    1.43    2.55
  -5   7  11   -0.13    2.42
   5   7 -11    2.38    2.77
   5  -7  11    5.14    3.46
   5   7  11   -0.76    3.27
   5   7  11    1.78    2.82
  -5  -7  11    0.65    2.13
   0  -8  11   40.91    4.47
   0   8  11   41.67    5.16
   0  -8  11   51.80    4.87
  -1   8  11   15.35    2.71
  -1   8  11   13.94    3.33
   1  -8  11   13.58    3.15
   1  -8  11   15.67    2.99
  -1  -8  11   16.21    3.11
   1   8  11   19.96    3.98
   2  -8  11    1.47    2.01
  -2   8  11    5.07    2.33
  -2   8  11    3.54    2.00
   2  -8  11    2.61    2.06
   2   8  11    6.69    2.73
  -2  -8  11    0.59    1.69
   3  -8  11    0.26    1.83
  -3   8  11    0.56    2.07
  -3   8  11    1.62    2.23
   3  -8  11    1.68    2.27
   3   8  11    1.26    2.43
  -3  -8  11   -2.14    1.54
   3   8  11    2.65    2.21
   4  -8  11    1.22    2.60
  -4   8  11    2.14    2.43
  -4  -8  11    1.38    2.30
   4   8  11    1.29    2.88
   4   8  11   -2.47    2.63
   0   9  11   88.90    6.68
   0  -9  11  103.35    6.05
   1  -9  11    4.82    2.10
  -1   9  11    4.18    2.10
  -1   9  11    3.31    2.48
   1   9  11   -1.13    2.26
  -1  -9  11    2.55    2.15
  -2   9  11    0.41    1.66
   2  -9  11   -1.13    1.59
  -2   9  11   -2.88    1.90
  -2  -9  11   -1.20    1.52
   2   9  11   -2.14    2.24
  -3   9  11    4.40    2.62
  -3   9  11    1.27    2.64
   3  -9  11    6.23    2.55
   3  -9  11    0.76    2.62
  -3  -9  11   -2.03    1.74
   3   9  11    2.65    2.83
   4  -9  11    1.80    3.17
  -4   9  11    6.78    3.09
  -4  -9  11    3.09    2.31
   4   9  11    3.92    3.16
   4   9  11    9.10    3.65
   0  10  11   13.71    3.76
   0 -10  11   25.89    3.85
  -1  10  11    4.61    2.11
   1 -10  11   -1.48    1.70
  -1  10  11   -0.79    1.71
   1  10  11    2.56    2.45
  -1 -10  11    3.23    1.86
  -2  10  11    1.32    2.18
   2 -10  11   -0.73    1.85
  -2  10  11   -1.26    2.13
  -2 -10  11    3.47    2.12
   2  10  11    1.43    2.53
   3 -10  11    2.07    2.41
  -3  10  11    2.53    2.51
  -3  10  11    4.80    3.14
  -3 -10  11    3.43    2.51
   3  10  11    3.99    3.07
   0  11  11   10.54    3.49
   0 -11  11    9.99    2.82
  -1  11  11    0.28    2.29
   1 -11  11   -0.84    2.23
   1  11  11    0.80    2.58
  -1 -11  11   -0.84    1.81
  -2  11  11    2.92    2.31
  -2  11  11    4.27    3.21
   2 -11  11    3.90    2.38
   2  11  11    1.89    3.03
  -2 -11  11    3.48    2.34
  -3  11  11   -0.59    2.53
  -3  11  11    0.23    2.90
   3 -11  11    0.79    2.44
  -3 -11  11   -0.24    2.18
   3  11  11    0.79    3.14
   0  12  11    0.45    2.87
   0 -12  11   -0.98    1.81
  -1  12  11    1.37    2.65
   1 -12  11   -0.93    2.37
   1  12  11    0.77    2.58
  -1 -12  11   -0.71    2.09
   2 -12  11    0.83    2.48
  -2  12  11    2.66    2.28
  -2  12  11   -0.66    3.04
  -2 -12  11    2.85    2.61
   2  12  11   -0.34    2.76
   2 -12 -11    0.17    2.13
   0   0  12   21.49    3.12
   0   0  12   20.09    2.37
   1   0  12   30.92    3.85
   1   0  12   35.92    2.56
  -1   0  12   34.37    3.27
  -2   0  12    4.83    1.92
   2   0  12    1.31    1.74
   3   0  12   22.42    3.80
  -3   0  12   22.13    3.30
   4   0  12   45.69    5.71
  -4   0  12   41.15    4.52
  -5   0  12   16.89    3.57
   5   0  12    9.31    3.41
   0   1  12   25.52    3.52
   0  -1  12   34.98    3.93
   0  -1  12   28.31    2.85
   0   1  12   31.15    2.89
  -1   1  12   36.88    3.46
   1  -1  12   39.25    3.09
   1  -1  12   36.26    4.35
   1   1  12   31.32    3.82
   1   1  12   40.56    2.60
  -1  -1  12   42.29    3.67
  -2   1  12   30.19    3.40
   2  -1  12   34.56    4.45
  -2  -1  12   33.72    3.62
   2   1  12   20.39    3.61
  -3   1  12    1.62    1.53
   3  -1  12    4.21    2.46
   3   1  12    0.68    1.85
  -3  -1  12    1.77    1.63
   4  -1  12    4.87    2.55
  -4   1  12    5.56    2.25
  -4  -1  12    4.98    2.25
   4   1  12    2.60    2.42
   5  -1  12    4.93    2.99
  -5   1  12    3.96    2.25
  -5  -1  12    2.31    2.80
   5   1  12    2.94    2.59
   0   2  12   29.71    2.79
   0  -2  12   33.53    3.67
   0   2  12   31.40    3.89
   0  -2  12   31.21    3.09
  -1   2  12   85.96    4.48
   1  -2  12   92.25    4.40
   1  -2  12   84.15    5.27
   1   2  12   63.54    4.85
  -1  -2  12   82.01    4.50
   2  -2  12   53.79    5.29
  -2   2  12   63.49    4.24
  -2  -2  12   66.55    4.35
   2   2  12   64.02    5.83
   3  -2  12   51.58    5.86
  -3   2  12   55.60    4.87
   3   2  12   60.01    6.05
  -3  -2  12   61.38    5.18
   4  -2  12    3.98    2.57
  -4   2  12    4.45    2.09
  -4  -2  12    3.38    1.91
   4   2  12    6.10    2.70
  -5   2  12   13.53    3.28
   5  -2  12    9.23    3.70
   5   2  12   11.51    3.71
  -5  -2  12   16.65    3.47
   0   3  12   73.18    3.75
   0  -3  12   62.64    4.37
   0   3  12   71.03    4.90
   0  -3  12   61.77    3.78
  -1   3  12   20.98    3.16
   1  -3  12   21.09    2.54
  -1   3  12   20.35    2.62
   1  -3  12   19.10    3.17
   1   3  12   18.76    3.26
  -1  -3  12   17.94    2.67
  -2   3  12   -0.13    1.45
   2  -3  12   -0.21    1.11
  -2   3  12   -0.40    1.64
   2  -3  12    0.72    1.21
   2   3  12    0.54    1.73
  -2  -3  12   -1.49    1.31
   3  -3  12   10.93    3.11
  -3   3  12   10.27    2.60
  -3  -3  12   11.50    2.47
   3   3  12    5.61    2.46
   4  -3  12   30.46    4.85
  -4   3  12   28.10    3.92
  -4  -3  12   24.24    3.81
   4   3  12   25.86    4.67
  -5   3  12    2.40    2.41
   5  -3  12    4.33    2.94
  -5  -3  12    1.88    2.01
   5   3  12   -0.17    2.58
   0   4  12   43.62    3.05
   0  -4  12   53.41    4.89
   0   4  12   42.56    4.76
   0  -4  12   44.75    3.92
  -1   4  12   15.38    2.38
   1  -4  12   13.90    2.84
   1  -4  12   14.27    2.25
  -1   4  12   12.84    2.83
  -1  -4  12   13.26    2.29
   1   4  12   17.58    3.37
  -2   4  12   26.86    3.39
   2  -4  12   19.69    2.53
  -2   4  12   27.11    3.64
   2  -4  12   13.63    3.01
   2   4  12   24.12    3.91
  -2  -4  12   29.73    3.68
   3  -4  12   20.22    3.93
  -3   4  12   16.34    2.95
  -3  -4  12   12.74    2.64
   3   4  12   12.69    3.32
   4  -4  12    3.68    2.67
  -4   4  12    2.76    2.06
   4   4  12    5.87    2.65
  -4  -4  12    1.52    1.69
  -5   4  12    0.91    2.44
   5  -4  12   -0.72    2.53
  -5  -4  12    4.34    2.36
   5   4  12    2.34    2.90
   0  -5  12   11.99    2.67
   0  -5  12   13.79    2.40
   0   5  12   10.07    1.92
   0   5  12    9.75    2.64
  -1   5  12   10.10    2.17
   1  -5  12    7.60    2.54
   1  -5  12    8.60    1.94
  -1   5  12    5.28    2.28
  -1  -5  12   10.33    2.39
   1   5  12    5.41    2.56
   2  -5  12    2.78    1.70
  -2   5  12   -1.39    1.49
   2  -5  12    3.05    2.27
  -2   5  12    0.54    1.88
   2   5  12   -0.74    1.81
  -2  -5  12    1.77    1.60
  -3   5  12   32.48    4.36
   3  -5  12   26.46    4.51
  -3   5  12   23.29    3.44
   3   5  12   33.32    4.92
  -3  -5  12   25.63    3.52
   4  -5  12    1.44    2.48
  -4   5  12    2.48    2.19
  -4  -5  12    0.05    1.64
   4   5  12   -0.20    2.18
   5  -5  12    2.43    3.26
  -5   5  12    0.58    2.64
   5   5  12    0.57    2.92
  -5  -5  12   -0.35    2.12
   0   6  12   19.19    3.62
   0  -6  12   14.13    2.66
   0  -6  12   12.67    2.78
  -1   6  12   44.93    5.01
   1  -6  12   39.94    3.85
   1  -6  12   39.55    4.67
  -1   6  12   43.32    4.08
  -1  -6  12   40.23    4.29
   1   6  12   47.69    5.33
   2  -6  12   30.77    3.42
  -2   6  12   40.48    4.09
   2  -6  12   24.40    4.02
  -2   6  12   38.60    4.56
  -2  -6  12   31.36    3.92
  -3   6  12    5.16    2.35
  -3   6  12    6.40    2.72
   3  -6  12    1.29    2.56
  -3  -6  12   11.21    2.90
   3   6  12    9.97    3.22
   4  -6  12    4.80    2.95
  -4   6  12    2.33    2.13
   4   6  12    3.57    3.03
  -4  -6  12    2.08    2.21
  -5   6  12   -1.65    2.21
  -5  -6  12    1.41    2.19
   0  -7  12    0.61    1.63
   0  -7  12    0.97    1.75
   0   7  12    0.25    1.52
  -1   7  12   18.58    3.67
  -1   7  12   20.43    2.95
   1  -7  12   20.74    3.51
   1  -7  12   24.16    3.40
  -1  -7  12   19.68    3.16
   1   7  12   17.97    3.67
  -2   7  12    5.25    2.20
   2  -7  12    1.41    2.02
   2  -7  12    0.75    1.68
  -2   7  12    4.59    2.58
  -2  -7  12    3.59    1.96
   2   7  12    3.48    2.51
  -3   7  12    3.25    2.05
   3  -7  12    1.16    2.31
  -3   7  12    0.89    2.62
   3  -7  12    1.86    1.98
  -3  -7  12    1.49    1.88
   3   7  12    0.86    2.29
  -4   7  12   -1.24    2.06
   4  -7  12   -0.44    2.38
   4   7  12    0.56    2.96
   4   7  12   -1.06    2.52
  -4  -7  12    2.84    2.28
   0   8  12   14.23    3.40
   0  -8  12   11.00    2.54
   0  -8  12    9.47    2.72
  -1   8  12    6.63    2.21
   1  -8  12    4.53    2.52
  -1   8  12    5.63    2.82
   1  -8  12    4.18    1.86
   1   8  12    6.92    3.00
  -1  -8  12    3.20    2.01
   2  -8  12    6.31    2.86
   2  -8  12    4.97    2.31
  -2   8  12    3.59    2.65
  -2   8  12    1.30    1.76
   2   8  12    2.60    2.69
  -2  -8  12    7.80    2.42
   3  -8  12    6.08    3.04
  -3   8  12    6.83    3.07
  -3   8  12    4.53    2.42
   3  -8  12    2.97    2.18
  -3  -8  12    8.21    2.60
   3   8  12    5.54    3.31
   4  -8  12    8.20    3.43
  -4   8  12    8.36    3.19
   4   8  12    5.71    3.48
  -4  -8  12    8.86    2.97
   4   8  12   11.31    3.58
   0   9  12    0.80    2.56
   0  -9  12    3.40    2.38
   0  -9  12    1.26    1.82
  -1   9  12   10.66    2.57
  -1   9  12   11.52    3.22
   1  -9  12   12.03    2.87
   1  -9  12    2.21    2.46
   1   9  12    8.94    3.32
  -1  -9  12    8.48    2.63
   2  -9  12   -0.57    2.13
  -2   9  12    2.39    2.70
  -2   9  12    1.18    2.07
   2  -9  12   -0.15    1.92
  -2  -9  12    2.63    1.88
   2   9  12    3.94    2.84
  -3   9  12    6.87    3.31
   3  -9  12    5.21    2.50
   3  -9  12   -0.07    2.47
  -3   9  12    0.40    2.27
   3   9  12    0.93    2.73
  -3  -9  12    3.50    2.23
   0  10  12    4.57    2.83
   0 -10  12    4.03    2.61
   0 -10  12    4.34    2.40
   1 -10  12    2.34    2.10
  -1  10  12    5.36    3.09
   1 -10  12    7.71    3.09
  -1 -10  12    4.79    2.27
   1  10  12    1.53    2.53
   2 -10  12    3.10    2.75
   2 -10  12    4.44    2.57
  -2  10  12   -0.90    2.15
  -2  10  12    4.56    2.50
   2  10  12    7.90    3.43
  -2 -10  12    2.53    2.36
   3 -10  12    0.67    2.27
  -3  10  12   -1.16    2.31
   3 -10  12    2.04    2.75
  -3  10  12    2.59    2.75
   3  10  12    1.61    2.85
  -3 -10  12    1.78    2.11
   0  11  12    2.20    2.81
   0 -11  12    3.45    2.63
  -1  11  12    0.14    1.97
   1 -11  12   -0.36    1.93
   1  11  12   -0.47    2.63
  -1 -11  12    0.69    2.16
  -2  11  12    2.78    2.50
   2 -11  12    2.71    2.49
  -2  11  12    1.75    3.00
   2  11  12    1.75    3.02
  -2 -11  12   -0.53    2.29
   0  12  12    1.38    3.17
   0 -12  12    3.28    2.78
  -1  12  12    3.65    2.97
   1 -12  12    5.00    3.01
   1  12  12    2.50    2.89
  -1 -12  12    3.02    2.49
   0   0  13   -0.59    1.56
   0   0  13    1.15    1.19
   1   0  13   44.15    3.08
  -1   0  13   53.25    3.74
   1   0  13   37.18    4.30
  -1   0  13   42.26    4.18
   2   0  13    2.33    1.89
  -2   0  13    0.33    1.50
   3   0  13   -3.51    1.46
  -3   0  13   -1.15    1.34
   4   0  13    9.55    3.17
  -4   0  13    5.34    2.25
  -5   0  13    1.24    2.09
   5   0  13    3.21    2.73
   0   1  13   -0.75    1.43
   0   1  13    0.28    1.13
   0  -1  13    1.84    1.35
   0  -1  13   -0.50    1.44
  -1   1  13   23.08    3.50
  -1   1  13   22.43    2.89
   1  -1  13   23.21    3.58
   1  -1  13   21.44    2.57
  -1  -1  13   16.58    2.56
   1   1  13   22.86    3.56
  -2   1  13    6.27    1.96
   2  -1  13    6.24    2.33
  -2  -1  13    5.89    1.95
   2   1  13    7.42    2.71
  -3   1  13   10.70    2.49
   3  -1  13    8.07    3.14
   3   1  13    7.87    2.80
  -3  -1  13    6.30    2.18
   4  -1  13   14.72    3.55
  -4   1  13   10.77    2.80
  -4  -1  13   15.41    2.92
   4   1  13    8.97    3.07
   5  -1  13    5.61    3.38
  -5   1  13    3.53    2.49
  -5  -1  13    2.00    2.18
   5   1  13    1.32    2.47
   0   2  13    8.54    2.41
   0   2  13    5.64    1.61
   0  -2  13    3.75    2.08
   0  -2  13    7.58    1.94
  -1   2  13   32.31    3.31
  -1   2  13   21.68    3.37
   1  -2  13   36.89    4.46
   1  -2  13   33.05    3.09
   1   2  13   28.18    4.02
  -1  -2  13   27.98    3.20
  -2   2  13   41.75    4.07
  -2   2  13   36.15    3.86
  -2  -2  13   34.43    3.81
   2   2  13   41.99    4.82
  -3   2  13   17.66    3.10
   3  -2  13   14.61    3.65
  -3  -2  13   18.00    3.20
   3   2  13   14.18    3.29
  -4   2  13    7.79    2.66
   4  -2  13    1.27    2.68
   4   2  13    3.34    2.47
  -4  -2  13    2.08    2.05
  -5   2  13    7.08    2.69
   5  -2  13    3.25    3.37
   5   2  13    1.79    2.66
  -5  -2  13    4.81    2.67
   0   3  13   17.13    2.39
   0  -3  13   15.88    2.96
   0   3  13   16.92    3.24
   0  -3  13   12.86    2.24
  -1   3  13   68.25    4.26
   1  -3  13   63.17    5.74
  -1   3  13   75.49    4.97
   1  -3  13   73.51    4.14
  -1  -3  13   70.73    4.61
  -2   3  13    9.66    2.47
  -2   3  13    9.31    2.25
   2  -3  13    5.57    2.34
   2   3  13   10.08    3.01
  -2  -3  13   10.77    2.43
  -3   3  13    5.75    2.34
   3  -3  13    2.75    2.46
  -3  -3  13    3.70    1.87
   3   3  13    4.39    2.40
  -4   3  13    5.40    2.39
   4  -3  13    5.48    3.09
   4   3  13    9.45    3.41
  -4  -3  13    7.44    2.81
   5  -3  13   -0.01    2.52
  -5   3  13    0.83    2.50
  -5  -3  13    2.63    2.52
   5   3  13    3.02    3.06
   0  -4  13   11.81    2.67
   0  -4  13   14.25    2.44
   0   4  13   13.45    2.17
   0   4  13    8.92    2.82
  -1   4  13    3.53    1.97
   1  -4  13    1.90    1.53
  -1   4  13    1.12    1.50
   1  -4  13    2.80    2.08
   1   4  13    0.58    1.95
  -1  -4  13    2.35    1.55
  -2   4  13    7.96    2.34
   2  -4  13    4.84    2.42
  -2   4  13   15.33    3.09
   2  -4  13   13.36    2.31
  -2  -4  13   10.64    2.60
   2   4  13    7.83    2.85
   3  -4  13   12.76    3.29
  -3   4  13   12.95    2.99
  -3  -4  13    7.39    2.46
   3   4  13    9.06    3.22
   4  -4  13   -2.62    1.85
  -4   4  13    0.10    1.85
   4   4  13   -3.44    2.39
  -4  -4  13    1.66    1.99
   5  -4  13    0.97    2.58
  -5   4  13    3.22    2.82
   5   4  13    0.46    2.60
  -5  -4  13    2.03    2.29
   0  -5  13    4.78    1.94
   0   5  13    7.71    2.64
   0  -5  13    7.65    2.49
   1  -5  13   22.72    3.04
   1  -5  13   20.67    3.47
  -1   5  13   21.46    3.64
  -1   5  13   22.42    3.04
  -1  -5  13   16.95    2.80
   2  -5  13   14.08    3.38
  -2   5  13   20.66    3.58
   2  -5  13   22.56    2.89
  -2   5  13   13.45    2.66
  -2  -5  13   15.62    3.10
   2   5  13   13.13    3.30
   3  -5  13    8.90    3.25
  -3   5  13    7.88    2.59
  -3  -5  13    7.65    2.42
   3   5  13   11.14    3.56
  -4   5  13    1.39    2.45
   4  -5  13    1.68    2.56
   4   5  13    2.74    2.87
  -4  -5  13    2.82    2.07
   0  -6  13   -0.15    1.92
   0   6  13    2.12    2.39
   0  -6  13   -1.69    1.43
   1  -6  13   10.97    3.00
  -1   6  13   14.47    2.68
   1  -6  13   17.56    2.87
  -1   6  13   12.07    3.04
   1   6  13   12.65    3.33
  -1  -6  13   16.69    3.07
  -2   6  13   -0.15    1.78
   2  -6  13    6.54    2.11
  -2   6  13    4.46    2.56
   2  -6  13    4.95    2.60
  -2  -6  13    2.38    2.03
   2   6  13   -0.62    2.14
   3  -6  13    7.96    3.27
  -3   6  13    6.45    2.62
   3   6  13    4.21    2.95
  -3  -6  13    2.18    2.16
  -4   6  13    0.55    2.46
   4  -6  13    0.45    2.80
   4   6  13    1.15    2.47
  -4  -6  13   -0.68    1.62
   0   7  13   12.65    3.52
   0  -7  13    8.64    2.80
   0  -7  13    5.66    2.12
  -1   7  13   36.35    5.11
   1  -7  13   35.21    3.94
  -1   7  13   27.66    3.39
   1  -7  13   32.30    4.50
  -1  -7  13   25.40    3.76
   1   7  13   27.95    4.73
   2  -7  13   24.85    4.18
  -2   7  13   36.10    4.81
  -2   7  13   39.38    4.39
   2  -7  13   37.47    4.10
   2   7  13   40.37    5.66
  -2  -7  13   28.49    4.08
  -3   7  13    3.70    2.46
  -3   7  13    1.54    2.58
   3  -7  13   -2.13    2.23
   3   7  13    2.43    2.49
  -3  -7  13    2.74    2.19
  -4   7  13    1.36    2.31
   4  -7  13    3.04    2.90
   4   7  13   -0.97    2.62
  -4  -7  13    4.14    2.48
   4   7  13    1.56    3.04
   0  -8  13    0.38    2.06
   0  -8  13    1.02    1.55
   0   8  13   -0.64    1.94
  -1   8  13    8.35    2.39
   1  -8  13    8.60    2.45
  -1   8  13    5.24    2.84
   1  -8  13   11.07    3.33
  -1  -8  13   10.82    3.00
   1   8  13    9.44    3.39
  -2   8  13   14.01    3.02
  -2   8  13   12.51    3.58
   2  -8  13   13.69    3.77
   2  -8  13   15.30    3.15
  -2  -8  13   12.90    3.12
   2   8  13   14.36    3.96
  -3   8  13    2.44    2.51
   3  -8  13    6.39    3.02
  -3   8  13    6.62    2.95
  -3  -8  13    6.09    2.71
   3   8  13    5.68    3.32
   0  -9  13    4.85    2.66
   0  -9  13    4.21    2.17
   0   9  13   -0.01    2.27
  -1   9  13    1.15    2.52
   1  -9  13    3.14    2.80
   1  -9  13   -0.29    2.09
   1   9  13    1.13    2.63
  -1  -9  13    1.02    1.80
  -2   9  13    3.63    2.45
   2  -9  13    1.48    2.81
   2  -9  13    1.80    2.04
  -2   9  13    0.59    2.60
  -2  -9  13   -0.46    2.21
   2   9  13    3.61    3.08
   3  -9  13    2.26    2.51
   3  -9  13    2.92    2.66
  -3   9  13    4.33    3.13
  -3   9  13    4.52    2.55
  -3  -9  13    4.07    2.34
   3   9  13    0.69    2.65
   0 -10  13    5.93    2.62
   0  10  13    2.22    2.94
   1 -10  13    0.42    2.54
   1 -10  13    1.55    2.28
  -1  10  13   -0.66    2.16
   1  10  13    3.82    3.02
  -1 -10  13   -0.23    2.16
  -2  10  13    2.64    2.70
   2 -10  13    3.04    3.14
   2 -10  13    2.50    2.56
  -2  10  13    0.19    2.44
  -2 -10  13    3.85    2.31
   2  10  13    5.14    3.16
   0 -11  13   -0.91    1.88
   0  11  13    2.25    2.99
   1 -11  13   -0.99    2.64
  -1  11  13    1.40    2.95
   1 -11  13   -0.72    2.64
  -1 -11  13   -0.08    2.55
   1  11  13   -1.49    2.68
   0   0  14    6.37    2.41
   0   0  14   10.19    2.08
   1   0  14    3.05    2.02
  -1   0  14    3.70    2.11
  -1   0  14    2.92    1.65
   2   0  14    8.00    2.62
  -2   0  14   13.20    2.63
   3   0  14    3.39    2.49
  -3   0  14    3.46    2.15
   4   0  14    0.66    2.73
  -4   0  14    4.17    2.12
   5   0  14    1.40    2.88
  -5   0  14    5.40    2.56
   0   1  14   84.69    5.87
   0  -1  14   98.42    5.81
   0  -1  14  106.26    5.17
   0   1  14  106.90    4.96
  -1   1  14   19.39    3.26
  -1   1  14   18.38    2.71
   1  -1  14   13.69    3.10
  -1  -1  14   19.30    2.91
  -1  -1  14   19.99    3.16
   1   1  14   11.36    2.92
   2  -1  14   10.19    2.86
  -2   1  14   20.90    3.05
   2   1  14   27.41    4.10
  -2  -1  14   24.23    3.29
  -3   1  14    2.10    1.98
   3  -1  14    3.17    2.59
   3   1  14    1.98    2.29
  -3  -1  14    1.97    1.77
   4  -1  14    0.39    2.24
  -4   1  14    7.08    2.50
  -4  -1  14    3.60    2.47
   4   1  14    5.81    2.99
  -5   1  14    0.48    2.19
  -5  -1  14    0.29    1.96
   0  -2  14    1.50    1.61
   0   2  14    5.07    2.32
   0   2  14    2.09    1.51
   0  -2  14   -0.60    1.67
   1  -2  14   30.14    3.13
  -1   2  14   24.04    3.83
  -1   2  14   27.57    3.24
   1  -2  14   19.45    3.61
  -1  -2  14   31.09    3.77
  -1  -2  14   28.29    3.43
   1   2  14   30.11    4.31
  -2   2  14    6.89    2.52
  -2   2  14    3.92    1.98
   2  -2  14    3.90    2.26
  -2  -2  14    6.25    2.04
   2   2  14    4.90    2.52
   3  -2  14   11.55    3.48
  -3   2  14   11.60    2.85
   3   2  14   13.46    3.46
  -3  -2  14   10.31    2.60
  -4   2  14    2.45    2.09
   4  -2  14    3.01    2.67
  -4  -2  14    2.77    2.14
   4   2  14    1.19    2.70
   0  -3  14    3.49    1.75
   0  -3  14    3.85    2.10
   0   3  14    4.41    2.42
  -1   3  14    2.29    2.06
   1  -3  14    3.00    2.11
  -1   3  14    4.97    1.94
   1  -3  14    4.40    1.77
  -1  -3  14    2.45    1.58
  -1  -3  14    5.16    2.06
   1   3  14    3.02    2.19
  -2   3  14    3.68    2.03
   2  -3  14    3.31    2.41
  -2   3  14    1.59    2.03
  -2  -3  14    3.68    1.94
   2   3  14    0.29    1.96
  -3   3  14    2.40    2.18
   3  -3  14    2.93    2.54
  -3  -3  14    3.50    2.14
   3   3  14    6.97    2.82
  -4   3  14    3.47    2.55
   4  -3  14    6.60    3.11
   4   3  14    3.87    2.77
  -4  -3  14    8.93    2.95
   0   4  14   15.66    3.33
   0  -4  14   17.32    3.33
   0  -4  14   16.14    2.78
   1  -4  14    9.03    2.15
  -1   4  14    8.05    2.77
   1  -4  14    4.71    2.27
  -1   4  14    9.09    2.26
  -1  -4  14    7.58    2.20
   1   4  14    0.03    1.51
  -2   4  14    6.93    2.64
  -2   4  14   12.23    2.69
   2  -4  14    4.64    2.56
  -2  -4  14    7.47    2.22
   2   4  14    7.53    2.96
  -3   4  14    9.77    2.69
   3  -4  14    4.72    2.67
  -3  -4  14    7.75    2.57
   3   4  14    9.39    3.27
   4  -4  14   -1.88    2.20
  -4   4  14    1.14    2.17
  -4  -4  14    3.45    2.32
   4   4  14    5.10    2.97
   0   5  14   13.15    3.30
   0  -5  14    9.30    2.42
   0  -5  14    7.92    2.56
   1  -5  14    8.43    2.81
  -1   5  14    5.36    2.04
  -1   5  14    4.65    2.81
   1  -5  14    7.13    2.17
  -1  -5  14    4.64    2.00
   1   5  14   -0.75    1.86
  -2   5  14   -1.53    1.95
  -2   5  14   -0.99    1.42
   2  -5  14   -1.91    2.12
  -2  -5  14    1.34    2.03
   2   5  14   -0.71    2.00
   3  -5  14    0.46    2.34
  -3   5  14   -0.93    1.88
  -3  -5  14    0.66    1.99
   3   5  14    2.71    2.56
   4  -5  14   14.47    4.04
  -4   5  14    4.90    2.82
   4   5  14    9.43    4.02
  -4  -5  14   10.66    3.16
   0   6  14   20.79    4.04
   0  -6  14   29.59    3.84
   0  -6  14   19.39    3.58
   1  -6  14   -1.82    1.77
  -1   6  14    2.39    2.42
   1  -6  14   -0.13    1.62
  -1   6  14    0.69    1.78
   1   6  14   -0.64    2.29
  -1  -6  14   -0.64    1.64
  -2   6  14    5.60    2.74
   2  -6  14    3.69    2.86
   2  -6  14    5.32    2.01
  -2   6  14    8.99    2.45
  -2  -6  14    9.84    2.64
   2   6  14    1.20    2.84
  -3   6  14    0.77    2.10
   3  -6  14    2.19    2.80
  -3  -6  14    3.07    2.11
   3   6  14   -3.39    2.25
   4  -6  14    7.37    3.43
  -4   6  14    2.57    2.46
   4   6  14    3.19    3.02
  -4  -6  14    1.38    2.51
   0   7  14    5.27    2.97
   0  -7  14    1.65    2.21
   0  -7  14    4.95    2.36
   1  -7  14    0.41    2.07
   1  -7  14    2.11    1.74
  -1   7  14    3.78    2.77
   1   7  14   -0.30    2.35
  -1  -7  14    0.84    1.91
  -2   7  14    2.78    2.19
  -2   7  14    1.09    2.36
   2  -7  14    4.45    2.74
   2  -7  14    7.40    2.43
  -2  -7  14    3.71    2.20
   2   7  14    7.27    3.25
  -3   7  14    4.14    2.68
   3  -7  14    3.46    2.93
   3   7  14    1.03    2.64
  -3  -7  14    1.39    1.95
   0  -8  14    0.40    2.16
   0   8  14   -0.37    2.05
   0  -8  14    2.77    2.46
   1  -8  14    8.93    3.21
   1  -8  14    7.23    2.33
  -1   8  14    8.16    3.34
   1   8  14    8.53    3.58
  -1  -8  14    6.62    2.76
  -2   8  14    8.07    3.36
   2  -8  14    5.91    2.82
  -2   8  14    4.02    2.43
   2  -8  14   13.19    3.06
   2   8  14    4.62    3.14
  -2  -8  14    3.01    2.36
  -3   8  14   -1.26    2.67
  -3   8  14   -0.21    2.32
   3  -8  14    0.19    2.10
  -3  -8  14    1.02    2.27
   3   8  14   -2.58    2.89
   0  -9  14   12.87    3.13
   0   9  14    6.59    3.06
   1  -9  14    4.55    2.34
  -1   9  14   10.47    3.70
   1  -9  14    2.61    2.65
  -1  -9  14    7.27    2.64
   1   9  14    9.33    3.98
   2  -9  14    0.21    2.31
   2  -9  14    0.36    2.60
  -2   9  14   -0.49    2.82
  -2   9  14    2.54    2.53
   2   9  14   -1.62    2.92
  -2  -9  14    1.50    2.24
   0 -10  14    2.16    2.39
   0  10  14   -0.25    2.94
   1 -10  14   -0.06    2.92
  -1  10  14    0.01    2.82
   1 -10  14   -0.15    2.15
   1  10  14    0.57    2.89
  -1 -10  14    1.09    2.52
   0   0  15    0.56    1.48
   0   0  15    0.50    1.89
   1   0  15   19.59    3.82
  -1   0  15   18.78    3.31
  -1   0  15   15.50    2.69
  -2   0  15    2.39    1.85
   2   0  15    1.75    1.96
  -3   0  15    5.65    2.46
   3   0  15    1.89    2.46
   4   0  15    2.56    2.73
  -4   0  15    3.41    2.59
   0   1  15    1.15    1.52
   0  -1  15    3.72    1.77
   0   1  15   -1.12    1.71
   0  -1  15    2.07    2.21
  -1   1  15   14.41    3.02
   1  -1  15   13.44    3.09
  -1   1  15   14.51    2.79
   1   1  15   13.93    3.45
  -1  -1  15   12.29    2.56
  -1  -1  15   14.04    3.08
  -2   1  15    4.89    2.07
   2  -1  15    1.83    1.98
   2   1  15    7.08    2.80
  -2  -1  15    7.21    2.23
  -3   1  15    5.65    2.27
   3  -1  15    4.53    2.83
  -3  -1  15    5.83    2.27
   3   1  15    8.32    3.38
  -4   1  15   -0.78    1.94
   4  -1  15   -1.03    2.31
   4   1  15    0.06    2.74
  -4  -1  15    2.29    2.31
   0   2  15   29.79    4.42
   0  -2  15   38.79    3.77
   0  -2  15   32.35    4.35
   1  -2  15   -1.04    2.05
  -1   2  15    1.64    2.21
  -1   2  15   -1.12    1.46
   1   2  15   -0.25    1.92
  -1  -2  15    0.65    1.94
  -1  -2  15    0.70    1.65
   2  -2  15   -0.80    1.93
  -2   2  15    0.56    1.78
   2   2  15    0.36    2.11
  -2  -2  15    2.44    1.90
   3  -2  15    2.04    2.54
  -3   2  15   -1.06    1.70
  -3  -2  15   -1.18    1.76
   3   2  15    2.99    2.89
   4  -2  15    1.42    2.47
  -4   2  15    0.21    2.09
   4   2  15    2.25    3.13
  -4  -2  15   -0.10    1.99
   0  -3  15    0.07    2.02
   0   3  15    4.11    2.46
   0  -3  15    5.61    2.07
   1  -3  15    6.12    2.78
  -1   3  15    4.13    2.45
  -1   3  15    5.63    2.10
   1  -3  15    3.52    1.78
   1   3  15    3.55    2.40
  -1  -3  15    6.58    2.22
   2  -3  15   10.15    3.07
  -2   3  15   10.02    2.69
   2   3  15   14.15    3.58
  -2  -3  15    7.23    2.49
  -3   3  15    1.23    2.07
   3  -3  15    4.20    2.61
   3   3  15    1.25    2.21
  -3  -3  15    2.60    2.20
  -4   3  15    7.23    2.84
   4  -3  15   11.36    4.61
  -4  -3  15   12.63    3.48
   4   3  15    8.67    3.60
   0  -4  15    7.75    2.17
   0  -4  15    7.61    2.75
   0   4  15    3.88    2.12
   1  -4  15   15.75    3.37
   1  -4  15   17.76    2.92
  -1   4  15   13.73    3.39
  -1   4  15   22.78    3.19
  -1  -4  15   19.02    3.19
   1   4  15   15.03    3.68
   2  -4  15    2.18    2.34
  -2   4  15   -0.31    1.91
  -2   4  15   -0.13    2.10
   2   4  15    0.85    2.41
  -2  -4  15    1.89    1.84
   3  -4  15   11.88    3.64
  -3   4  15    8.82    2.93
  -3  -4  15   11.87    3.12
   3   4  15   10.93    3.57
   4  -4  15    3.11    3.16
  -4   4  15    2.30    2.68
  -4  -4  15    0.27    2.42
   4   4  15    2.90    2.75
   0  -5  15   35.88    4.09
   0   5  15   45.11    5.57
   0  -5  15   32.96    4.47
   1  -5  15    2.26    2.34
  -1   5  15   10.21    3.37
   1  -5  15    7.71    2.32
  -1   5  15    5.29    2.28
  -1  -5  15    8.35    2.33
   1   5  15    0.96    2.07
  -2   5  15    7.11    2.95
   2  -5  15    3.63    2.80
  -2   5  15    5.15    2.63
   2   5  15    3.44    2.60
  -2  -5  15    5.38    2.55
  -3   5  15   -2.17    1.71
   3  -5  15    1.36    2.61
  -3  -5  15    0.50    1.74
   3   5  15   -1.04    2.62
   0   6  15   28.53    4.83
   0  -6  15   32.95    4.64
   0  -6  15   19.02    3.38
   1  -6  15    7.92    3.13
   1  -6  15    7.57    2.37
  -1   6  15    6.72    2.88
   1   6  15    7.12    3.21
  -1  -6  15    3.80    2.02
  -2   6  15    5.25    2.85
   2  -6  15    1.29    2.67
  -2   6  15    4.08    2.42
  -2  -6  15    1.17    2.04
   2   6  15    3.15    2.94
  -3   6  15    5.28    2.69
   3  -6  15    4.70    3.42
   3   6  15    5.89    3.47
  -3  -6  15    2.56    2.44
   0   7  15   -2.51    2.20
   0  -7  15    0.08    1.99
   0  -7  15    0.75    2.33
   1  -7  15    2.29    2.46
  -1   7  15    2.03    2.67
   1  -7  15   -1.20    1.89
  -1  -7  15    0.61    1.92
   1   7  15    2.70    2.87
  -2   7  15    1.15    2.23
   2  -7  15    3.06    2.97
  -2   7  15    1.79    2.52
  -2  -7  15    3.34    2.12
   2   7  15   -0.96    2.87
   3  -7  15    1.10    2.52
  -3   7  15   10.27    3.28
  -3  -7  15    4.13    2.52
   3   7  15    5.07    3.16
   0   8  15    0.73    2.94
   0  -8  15    0.25    2.27
   1  -8  15   -1.01    1.92
  -1   8  15    1.34    2.65
   1  -8  15    3.94    2.90
  -1  -8  15    4.11    2.49
   1   8  15    1.22    2.74
   2  -8  15    0.68    2.84
   2  -8  15    1.84    2.27
  -2   8  15    3.57    2.55
  -2   8  15    6.39    3.22
   2   8  15    2.19    3.27
  -2  -8  15    2.59    2.29
   0   9  15    0.86    2.36
   0  -9  15   10.77    3.11
   1  -9  15    5.10    2.84
   1  -9  15    5.99    3.42
  -1   9  15    6.96    3.67
  -1  -9  15    4.85    2.79
   1   9  15    5.94    3.91
   0   0  16   -0.41    2.12
   1   0  16    0.91    2.48
  -1   0  16    1.10    1.80
  -1   0  16   -0.20    1.96
   2   0  16    1.24    2.05
  -2   0  16   16.70    3.10
   3   0  16   -0.70    2.61
  -3   0  16    3.85    2.52
   4   0  16   -0.33    2.78
  -4   0  16    0.31    2.02
   0   1  16    6.21    2.56
   0  -1  16    0.99    1.66
   0  -1  16    1.46    2.45
  -1   1  16   20.99    3.26
   1  -1  16   17.79    3.74
  -1   1  16   18.39    3.58
   1   1  16   23.54    4.31
  -1  -1  16   23.95    3.41
  -2   1  16    5.22    2.30
   2  -1  16    4.56    2.57
  -2  -1  16   -0.53    1.63
   2   1  16    1.23    2.42
  -3   1  16    0.72    1.92
   3  -1  16    0.69    2.67
  -3  -1  16   -0.35    2.08
   3   1  16    0.43    2.43
  -4   1  16    0.10    2.31
   4  -1  16    3.79    3.06
  -4  -1  16    3.02    2.36
   4   1  16    2.32    2.88
   0  -2  16    2.17    2.41
   0   2  16   -0.29    2.29
   0  -2  16    1.22    1.66
  -1   2  16    1.42    1.76
   1  -2  16    3.62    2.55
  -1   2  16    1.02    1.82
  -1  -2  16    0.27    1.86
   1   2  16    2.90    2.39
  -2   2  16   16.98    3.41
   2  -2  16   16.50    3.87
  -2  -2  16   20.28    3.58
   2   2  16   14.75    4.02
  -3   2  16    4.36    2.53
   3  -2  16    2.34    2.98
   3   2  16    2.98    3.13
  -3  -2  16    1.73    2.36
   0  -3  16    5.25    2.29
   0  -3  16    3.73    2.51
   0   3  16    7.32    3.21
   1  -3  16    6.14    2.72
  -1   3  16    2.22    2.41
  -1   3  16    3.34    2.08
   1   3  16    2.23    2.70
  -1  -3  16    4.66    2.21
  -2   3  16    4.03    2.39
   2  -3  16    4.36    2.64
  -2  -3  16    3.16    2.05
   2   3  16    2.84    2.65
   3  -3  16   10.79    3.72
  -3   3  16   10.25    3.10
  -3  -3  16   16.16    3.47
   3   3  16   10.01    3.77
   0   4  16    2.77    2.79
   0  -4  16    4.14    2.94
   0  -4  16    4.10    2.18
  -1   4  16    6.26    2.71
   1  -4  16    0.61    2.29
   1   4  16    7.22    3.18
  -1  -4  16    4.86    2.42
  -2   4  16   -0.38    2.01
   2  -4  16   -0.93    2.45
   2   4  16   -2.52    2.19
  -2  -4  16    0.74    1.88
  -3   4  16    6.91    3.04
   3  -4  16    3.97    3.07
   3   4  16    7.85    3.24
  -3  -4  16    8.38    2.76
   0   5  16    1.15    2.70
   0  -5  16    0.79    2.43
   0  -5  16    1.45    1.96
  -1   5  16    1.20    2.75
   1  -5  16    4.43    2.36
   1  -5  16    4.92    2.99
   1   5  16   -0.76    1.60
  -1  -5  16   13.12    2.98
  -2   5  16    9.95    3.02
   2  -5  16    7.63    3.33
  -2   5  16    6.73    3.29
  -2  -5  16   11.37    3.01
   2   5  16    5.13    3.14
  -3   5  16    8.06    3.06
   3  -5  16    5.91    3.02
   3   5  16    3.53    2.99
  -3  -5  16    4.01    2.47
   0   6  16    0.72    2.55
   0  -6  16   -0.28    2.01
  -1   6  16    9.66    3.49
   1  -6  16    7.44    2.49
   1  -6  16    6.41    3.15
  -1  -6  16    8.84    2.81
   1   6  16   11.04    3.62
  -2   6  16   19.31    4.42
   2  -6  16   15.27    4.15
  -2   6  16   16.57    3.49
  -2  -6  16   15.01    3.57
   2   6  16   11.59    3.57
   0   7  16   -0.98    2.89
   0  -7  16    1.57    2.41
   1  -7  16    3.77    3.04
   1  -7  16    3.18    2.40
  -1   7  16    5.17    3.10
  -1  -7  16    0.66    2.16
   1   7  16    7.20    3.96
   2  -7  16    2.75    3.10
  -2   7  16    0.34    2.72
  -2   7  16   -0.11    3.02
  -2  -7  16   -1.22    2.35
   2   7  16    0.95    3.25
   0  -8  16   20.36    3.86
   0   8  16   21.15    5.07
  -1   8  16    1.30    3.24
   1  -8  16    3.06    2.63
   1  -8  16   -1.74    2.84
   1   8  16    3.13    3.38
  -1  -8  16    0.11    1.99
   0   0  17    0.15    2.42
  -1   0  17   38.71    4.29
   1   0  17   35.86    5.19
  -2   0  17    0.56    2.01
   2   0  17    1.02    2.52
  -3   0  17    3.62    2.46
   3   0  17    6.14    3.67
   0   1  17    4.62    2.74
   0  -1  17    2.38    2.53
  -1   1  17    4.08    2.30
   1  -1  17    5.08    2.98
  -1   1  17    1.86    2.71
  -1  -1  17    0.96    2.01
   1   1  17   -2.69    1.91
   2  -1  17    3.21    2.89
  -2   1  17   -0.41    1.91
   2   1  17   -1.24    1.63
  -2  -1  17   -0.18    1.97
   3  -1  17    2.47    3.22
  -3   1  17    2.08    2.27
  -3  -1  17    2.16    2.51
   3   1  17    0.79    3.17
   0  -2  17    3.92    2.91
   0   2  17    4.02    2.63
   1  -2  17    3.92    2.95
  -1   2  17    4.38    2.81
   1   2  17    6.74    3.36
  -1  -2  17    7.37    2.51
  -2   2  17    8.93    2.86
   2  -2  17   11.66    3.78
  -2  -2  17   12.65    3.17
   2   2  17    8.73    3.78
   3  -2  17    1.69    2.83
  -3   2  17    5.51    2.74
   3   2  17    0.70    2.99
  -3  -2  17    8.59    2.91
   0  -3  17    8.37    2.64
   0  -3  17    6.50    2.99
   0   3  17    6.05    3.32
   1  -3  17   -0.25    2.58
  -1   3  17   -1.35    2.40
   1   3  17   -0.56    2.76
  -1  -3  17    1.01    1.90
   2  -3  17    1.60    2.72
  -2   3  17    0.01    2.26
   2   3  17    3.01    3.16
  -2  -3  17   -0.19    2.01
  -3   3  17   -2.24    1.95
   3  -3  17   -0.03    2.89
  -3  -3  17    3.65    2.70
   3   3  17    1.44    2.88
   0  -4  17    3.08    2.26
   0  -4  17    2.95    2.64
   0   4  17    3.33    2.85
  -1   4  17    4.68    2.80
   1  -4  17    1.61    2.87
  -1  -4  17    7.21    2.64
   1   4  17    2.50    3.01
   2  -4  17   -1.18    2.47
  -2   4  17   -0.80    2.24
   2   4  17    1.27    2.74
  -2  -4  17    1.50    2.12
   0  -5  17    9.45    2.83
   0   5  17    4.58    3.33
   1  -5  17    5.35    3.26
  -1   5  17    5.34    3.16
  -1  -5  17    1.03    2.06
   1   5  17    7.04    3.29
   2  -5  17    4.86    3.11
  -2   5  17    5.94    2.86
   2   5  17    6.44    3.81
  -2  -5  17    7.17    2.92
   0  -6  17   -0.69    2.12
   0   6  17    0.98    2.61
   1  -6  17    2.59    2.92
  -1   6  17   -0.19    3.13
  -1  -6  17   -1.55    2.22
   1   6  17   -0.02    2.49
   0  -7  17    0.52    2.45
   0   7  17   -0.68    2.65
   0   0  18   10.46    3.54
  -1   0  18    2.16    2.16
   1   0  18    3.43    2.89
   2   0  18   -0.67    2.90
  -2   0  18   -1.37    2.18
   0   1  18    9.10    3.45
   0  -1  18    7.20    3.36
   1  -1  18    3.77    2.80
  -1  -1  18    1.25    2.27
   1   1  18    0.43    2.72
  -2   1  18    4.54    2.55
   2  -1  18    0.93    2.65
  -2  -1  18    0.55    2.48
   2   1  18    3.05    3.05
   0   2  18    1.33    3.08
   0  -2  18   -0.84    2.42
   1  -2  18    0.89    2.61
   1   2  18    4.26    3.22
  -1  -2  18    3.90    2.50
  -2   2  18    2.73    2.37
   2  -2  18    3.93    3.37
  -2  -2  18    1.90    2.53
   2   2  18    0.77    2.21
   0  -3  18    2.83    2.88
   0   3  18    0.67    2.77
   1  -3  18    1.29    3.17
  -1   3  18   -0.51    2.80
   1   3  18    2.72    2.93
  -1  -3  18   -0.73    2.10
  -2   3  18    1.12    2.57
   2  -3  18    1.70    2.68
   2   3  18    0.59    2.95
  -2  -3  18    3.36    2.53
   0   4  18    0.90    2.66
  -1   4  18    0.45    3.08
   1  -4  18    6.01    3.45
   1   4  18    0.33    3.00
  -1  -4  18    2.57    2.39
   0  -5  18    0.70    2.42
   0   5  18    0.45    2.88
   0   0  19   -0.50    3.08
   0  -1  19   -2.88    2.83
   0   1  19    1.16    3.26
   0   0   0    0.00    0.00

_computing_structure_solution     'SHELXT 2014/5 (Sheldrick, 2014)'
;
_shelx_hkl_checksum              3773
_olex2_submission_special_instructions 'No special instructions were received'
loop_
_space_group_symop_operation_xyz
'x, y, z'
'-x+1/2, -y, z+1/2'
'-x, y+1/2, -z+1/2'
'x+1/2, -y+1/2, -z'
loop_
_atom_site_label
_atom_site_type_symbol
_atom_site_fract_x
_atom_site_fract_y
_atom_site_fract_z
_atom_site_U_iso_or_equiv
_atom_site_adp_type
_atom_site_occupancy
_atom_site_site_symmetry_order
_atom_site_calc_flag
_atom_site_refinement_flags_posn
O1 O 0.2337(3) 0.47827(15) 0.62332(14) 0.0470(5) Uani 1 1 d .
O2 O 0.4928(4) 0.34669(15) 0.64820(15) 0.0536(6) Uani 1 1 d .
O3 O 0.7359(4) 0.66329(16) 0.63283(15) 0.0513(5) Uani 1 1 d .
O4 O 0.4881(5) 0.80122(17) 0.62313(17) 0.0659(7) Uani 1 1 d .
O5 O 0.8549(5) 0.8225(2) 0.57275(17) 0.0764(8) Uani 1 1 d .
O6 O 0.4674(4) 0.37260(18) 0.45539(16) 0.0580(6) Uani 1 1 d .
O7 O 0.7006(4) 0.4690(2) 0.36590(16) 0.0626(6) Uani 1 1 d .
O8 O 0.3375(4) 0.4245(2) 0.32006(18) 0.0810(9) Uani 1 1 d .
O9 O 0.1160(4) 0.3175(2) 0.68269(18) 0.0739(8) Uani 1 1 d .
C1 C 0.2671(6) 0.3756(3) 0.6546(2) 0.0502(8) Uani 1 1 d .
C2 C 0.6230(5) 0.4294(2) 0.5989(2) 0.0428(7) Uani 1 1 d .
H2 H 0.769560 0.448855 0.632388 0.051 Uiso 1 1 calc R
C3 C 0.4544(5) 0.5271(2) 0.59868(18) 0.0363(6) Uani 1 1 d .
H3 H 0.443694 0.558471 0.536227 0.044 Uiso 1 1 calc R
C4 C 0.5176(5) 0.6175(2) 0.66512(18) 0.0402(7) Uani 1 1 d .
H4 H 0.535958 0.587106 0.727631 0.048 Uiso 1 1 calc R
C5 C 0.7039(7) 0.7678(3) 0.6065(2) 0.0516(8) Uani 1 1 d .
C6 C 0.3512(5) 0.7160(2) 0.6648(2) 0.0500(8) Uani 1 1 d .
H6A H 0.208404 0.700034 0.629143 0.060 Uiso 1 1 calc R
H6B H 0.305283 0.736630 0.727171 0.060 Uiso 1 1 calc R
C7 C 0.6820(6) 0.3840(3) 0.5070(2) 0.0511(8) Uani 1 1 d .
H7 H 0.759703 0.310629 0.513447 0.061 Uiso 1 1 calc R
C8 C 0.4887(6) 0.4225(3) 0.3743(2) 0.0553(8) Uani 1 1 d .
C9 C 0.8313(5) 0.4592(3) 0.4479(2) 0.0605(9) Uani 1 1 d .
H9A H 0.852969 0.531995 0.476861 0.073 Uiso 1 1 calc R
H9B H 0.986946 0.426073 0.436397 0.073 Uiso 1 1 calc R
loop_
_atom_site_aniso_label
_atom_site_aniso_U_11
_atom_site_aniso_U_22
_atom_site_aniso_U_33
_atom_site_aniso_U_23
_atom_site_aniso_U_13
_atom_site_aniso_U_12
O1 0.0365(10) 0.0432(11) 0.0614(13) -0.0035(10) -0.0048(11) 0.0001(10)
O2 0.0521(13) 0.0481(12) 0.0606(14) 0.0229(10) 0.0013(12) 0.0057(11)
O3 0.0445(12) 0.0463(11) 0.0632(13) 0.0020(11) 0.0000(12) -0.0085(10)
O4 0.0736(17) 0.0468(12) 0.0773(17) 0.0151(11) 0.0090(15) 0.0058(12)
O5 0.088(2) 0.0743(17) 0.0670(16) 0.0178(14) 0.0148(15) -0.0225(15)
O6 0.0529(14) 0.0632(13) 0.0578(14) -0.0185(11) 0.0078(12) -0.0164(12)
O7 0.0541(13) 0.0762(15) 0.0573(14) 0.0022(13) 0.0062(13) -0.0103(13)
O8 0.0707(17) 0.099(2) 0.0734(17) -0.0276(15) -0.0188(15) -0.0005(16)
O9 0.0634(15) 0.0702(16) 0.0879(19) 0.0081(15) 0.0121(14) -0.0239(13)
C1 0.0506(19) 0.0516(18) 0.0485(19) 0.0024(15) -0.0004(16) -0.0049(16)
C2 0.0399(16) 0.0404(16) 0.0482(18) 0.0100(13) -0.0024(14) 0.0016(13)
C3 0.0373(15) 0.0378(14) 0.0339(14) 0.0024(12) -0.0035(12) 0.0015(13)
C4 0.0416(15) 0.0436(15) 0.0353(15) 0.0014(12) -0.0003(13) -0.0053(14)
C5 0.064(2) 0.0515(19) 0.0394(18) 0.0043(15) 0.0024(16) -0.0067(19)
C6 0.0517(19) 0.0447(17) 0.0535(19) -0.0097(14) 0.0040(16) -0.0028(14)
C7 0.0464(18) 0.0445(17) 0.062(2) -0.0050(16) 0.0077(16) 0.0065(15)
C8 0.057(2) 0.0540(18) 0.055(2) -0.0189(16) 0.0075(19) -0.0004(17)
C9 0.0442(18) 0.083(2) 0.055(2) -0.002(2) 0.0072(17) -0.0079(17)
loop_
_atom_type_symbol
_atom_type_description
_atom_type_scat_dispersion_real
_atom_type_scat_dispersion_imag
_atom_type_scat_source
C C 0.0033 0.0016 'International Tables Vol C Tables 4.2.6.8 and 6.1.1.4'
H H 0.0000 0.0000 'International Tables Vol C Tables 4.2.6.8 and 6.1.1.4'
O O 0.0106 0.0060 'International Tables Vol C Tables 4.2.6.8 and 6.1.1.4'
loop_
_geom_angle_atom_site_label_1
_geom_angle_atom_site_label_2
_geom_angle_atom_site_label_3
_geom_angle
C1 O1 C3 110.2(2)
C1 O2 C2 110.4(2)
C5 O3 C4 110.0(2)
C5 O4 C6 111.5(2)
C8 O6 C7 110.4(2)
C8 O7 C9 111.0(3)
O2 C1 O1 110.8(3)
O9 C1 O1 124.6(3)
O9 C1 O2 124.5(3)
O2 C2 H2 110.2
O2 C2 C3 102.5(2)
O2 C2 C7 108.3(2)
C3 C2 H2 110.2
C7 C2 H2 110.2
C7 C2 C3 115.0(2)
O1 C3 C2 103.3(2)
O1 C3 H3 109.7
O1 C3 C4 110.0(2)
C2 C3 H3 109.7
C4 C3 C2 114.2(2)
C4 C3 H3 109.7
O3 C4 C3 105.7(2)
O3 C4 H4 110.9
O3 C4 C6 103.5(2)
C3 C4 H4 110.9
C3 C4 C6 114.6(2)
C6 C4 H4 110.9
O4 C5 O3 111.4(3)
O5 C5 O3 123.2(3)
O5 C5 O4 125.4(3)
O4 C6 C4 103.1(2)
O4 C6 H6A 111.1
O4 C6 H6B 111.1
C4 C6 H6A 111.1
C4 C6 H6B 111.1
H6A C6 H6B 109.1
O6 C7 C2 108.7(2)
O6 C7 H7 109.9
O6 C7 C9 103.2(2)
C2 C7 H7 109.9
C2 C7 C9 115.0(3)
C9 C7 H7 109.9
O7 C8 O6 110.7(3)
O8 C8 O6 123.2(3)
O8 C8 O7 126.1(3)
O7 C9 C7 104.1(3)
O7 C9 H9A 110.9
O7 C9 H9B 110.9
C7 C9 H9A 110.9
C7 C9 H9B 110.9
H9A C9 H9B 109.0
loop_
_geom_bond_atom_site_label_1
_geom_bond_atom_site_label_2
_geom_bond_distance
O1 C1 1.343(4)
O1 C3 1.439(3)
O2 C1 1.339(4)
O2 C2 1.446(3)
O3 C4 1.446(3)
O3 C5 1.340(4)
O4 C5 1.320(4)
O4 C6 1.436(4)
O5 C5 1.197(4)
O6 C7 1.450(4)
O6 C8 1.349(4)
O7 C8 1.341(4)
O7 C9 1.428(4)
O8 C8 1.178(4)
O9 C1 1.189(4)
C2 H2 1.0000
C2 C3 1.527(4)
C2 C7 1.504(4)
C3 H3 1.0000
C3 C4 1.516(4)
C4 H4 1.0000
C4 C6 1.527(4)
C6 H6A 0.9900
C6 H6B 0.9900
C7 H7 1.0000
C7 C9 1.524(4)
C9 H9A 0.9900
C9 H9B 0.9900
loop_
_geom_torsion_atom_site_label_1
_geom_torsion_atom_site_label_2
_geom_torsion_atom_site_label_3
_geom_torsion_atom_site_label_4
_geom_torsion
O1 C3 C4 O3 -178.09(19)
O1 C3 C4 C6 -64.8(3)
O2 C2 C3 O1 -15.9(3)
O2 C2 C3 C4 103.7(3)
O2 C2 C7 O6 68.0(3)
O2 C2 C7 C9 -176.9(2)
O3 C4 C6 O4 6.2(3)
O6 C7 C9 O7 -7.7(3)
C1 O1 C3 C2 12.7(3)
C1 O1 C3 C4 -109.6(3)
C1 O2 C2 C3 14.6(3)
C1 O2 C2 C7 -107.4(3)
C2 O2 C1 O1 -7.4(3)
C2 O2 C1 O9 171.3(3)
C2 C3 C4 O3 66.2(3)
C2 C3 C4 C6 179.5(2)
C2 C7 C9 O7 -125.9(3)
C3 O1 C1 O2 -4.0(3)
C3 O1 C1 O9 177.3(3)
C3 C2 C7 O6 -46.1(3)
C3 C2 C7 C9 69.1(4)
C3 C4 C6 O4 -108.4(3)
C4 O3 C5 O4 4.3(3)
C4 O3 C5 O5 -176.1(3)
C5 O3 C4 C3 114.3(3)
C5 O3 C4 C6 -6.6(3)
C5 O4 C6 C4 -4.2(3)
C6 O4 C5 O3 0.1(4)
C6 O4 C5 O5 -179.4(3)
C7 O6 C8 O7 -0.8(3)
C7 O6 C8 O8 180.0(3)
C7 C2 C3 O1 101.5(3)
C7 C2 C3 C4 -139.0(3)
C8 O6 C7 C2 128.0(3)
C8 O6 C7 C9 5.4(3)
C8 O7 C9 C7 7.8(4)
C9 O7 C8 O6 -4.7(4)
C9 O7 C8 O8 174.5(3)
loop_
_twin_individual_id
_twin_individual_mass_fraction_refined
1 3(2)
2 -2(2)
loop_
_cod_related_entry_id
_cod_related_entry_database
_cod_related_entry_code
1 PubChem 168339078
