#------------------------------------------------------------------------------
#$Date: 2025-08-23 00:12:46 +0300 (Sat, 23 Aug 2025) $
#$Revision: 301866 $
#$URL: file:///home/coder/svn-repositories/cod/cif/7/23/48/7234812.cif $
#------------------------------------------------------------------------------
#
# This file is available in the Crystallography Open Database (COD),
# http://www.crystallography.net/
#
# All data on this site have been placed in the public domain by the
# contributors.
#
data_7234812
loop_
_publ_author_name
'Zhou, Hui'
'Zhang, Hui'
'Mu, Sen'
'Zhang, Wen-Zhen'
'Ren, Wei-Min'
'Lu, Xiaobing'
_publ_section_title
;
 Highly Regio- and Stereoselective Synthesis of Cyclic Carbonates from
 Biomass-derived Polyols via Organocatalytic Cascade Reaction
;
_journal_name_full               'Green Chemistry'
_journal_paper_doi               10.1039/C9GC03013A
_journal_year                    2019
_chemical_formula_sum            'C6 H6 O6'
_chemical_formula_weight         174.11
_space_group_crystal_system      monoclinic
_space_group_IT_number           14
_space_group_name_Hall           '-P 2yn'
_space_group_name_H-M_alt        'P 1 21/n 1'
_symmetry_space_group_name_Hall  '-P 2yn'
_symmetry_space_group_name_H-M   'P 1 21/n 1'
_atom_sites_solution_hydrogens   geom
_audit_creation_method           SHELXL-2016/6
_audit_update_record
;
2019-07-14 deposited with the CCDC.    2019-10-28 downloaded from the CCDC.
;
_cell_angle_alpha                90
_cell_angle_beta                 118.2550(10)
_cell_angle_gamma                90
_cell_formula_units_Z            4
_cell_length_a                   11.6926(10)
_cell_length_b                   5.2936(5)
_cell_length_c                   12.0745(11)
_cell_measurement_reflns_used    3361
_cell_measurement_temperature    200(2)
_cell_measurement_theta_max      27.47
_cell_measurement_theta_min      3.34
_cell_volume                     658.31(10)
_computing_structure_refinement  'SHELXL-2016/6 (Sheldrick, 2016)'
_computing_structure_solution    'SHELXT 2014/5 (Sheldrick, 2014)'
_diffrn_ambient_temperature      200(2)
_diffrn_measured_fraction_theta_full 0.956
_diffrn_measured_fraction_theta_max 0.957
_diffrn_measurement_device_type  'Bruker APEX-II CCD'
_diffrn_measurement_method       '\f and \w scans'
_diffrn_radiation_type           MoK\a
_diffrn_radiation_wavelength     0.71073
_diffrn_reflns_av_R_equivalents  0.0181
_diffrn_reflns_av_unetI/netI     0.0207
_diffrn_reflns_Laue_measured_fraction_full 0.956
_diffrn_reflns_Laue_measured_fraction_max 0.957
_diffrn_reflns_limit_h_max       14
_diffrn_reflns_limit_h_min       -14
_diffrn_reflns_limit_k_max       6
_diffrn_reflns_limit_k_min       -6
_diffrn_reflns_limit_l_max       14
_diffrn_reflns_limit_l_min       -13
_diffrn_reflns_number            3725
_diffrn_reflns_point_group_measured_fraction_full 0.956
_diffrn_reflns_point_group_measured_fraction_max 0.957
_diffrn_reflns_theta_full        25.242
_diffrn_reflns_theta_max         25.248
_diffrn_reflns_theta_min         3.342
_exptl_absorpt_coefficient_mu    0.163
_exptl_crystal_colour            white
_exptl_crystal_density_diffrn    1.757
_exptl_crystal_description       block
_exptl_crystal_F_000             360
_exptl_crystal_size_max          0.2
_exptl_crystal_size_mid          0.15
_exptl_crystal_size_min          0.12
_refine_diff_density_max         0.314
_refine_diff_density_min         -0.222
_refine_diff_density_rms         0.043
_refine_ls_extinction_method     none
_refine_ls_goodness_of_fit_ref   1.298
_refine_ls_hydrogen_treatment    constr
_refine_ls_matrix_type           full
_refine_ls_number_parameters     109
_refine_ls_number_reflns         1147
_refine_ls_number_restraints     0
_refine_ls_restrained_S_all      1.298
_refine_ls_R_factor_all          0.0409
_refine_ls_R_factor_gt           0.0380
_refine_ls_shift/su_max          0.000
_refine_ls_shift/su_mean         0.000
_refine_ls_structure_factor_coef Fsqd
_refine_ls_weighting_details
'w=1/[\s^2^(Fo^2^)+(0.1000P)^2^] where P=(Fo^2^+2Fc^2^)/3'
_refine_ls_weighting_scheme      calc
_refine_ls_wR_factor_gt          0.1399
_refine_ls_wR_factor_ref         0.1448
_reflns_Friedel_coverage         0.000
_reflns_number_gt                1054
_reflns_number_total             1147
_reflns_threshold_expression     'I > 2\s(I)'
_cod_data_source_file            c9gc03013a2.cif
_cod_data_source_block           work1
_cod_database_code               7234812
_shelx_shelxl_version_number     2016/6
_shelx_space_group_comment
;
The symmetry employed for this shelxl refinement is uniquely defined
by the following loop, which should always be used as a source of
symmetry information in preference to the above space-group names.
They are only intended as comments.
;
_shelx_res_file
;
TITL WORK1_a.res in P2(1)/n           New: P21/n
    work1.res
    created by SHELXL-2016/6 at 15:17:06 on 21-Jan-2019
CELL  0.71073   11.6926    5.2936   12.0745    90.000   118.255    90.000
ZERR        4    0.0010    0.0005    0.0011     0.000     0.001     0.000
LATT   1
SYMM     0.50000 - X ,    0.50000 + Y ,    0.50000 - Z
SFAC  C  H  O
UNIT    24   24 24
LIST 4! automatically inserted. Change 6 to 4 for CHECKCIF!!
TEMP   -73
L.S. 5
FMAP 2
PLAN -20
ACTA
omit -3 50.5
BOND $H
omit 1   5   0
omit     5   3   6
omit     3   5   2
omit     3   1   4
omit     1   3   0
omit     1   4   2
omit    -4   0   4
omit     3   2   4
omit     1   5   2
omit     5   2   4

omit     2   3   2
omit     0   3   6
omit    -5   1   2

omit     3   1   2

omit     3   2   2
omit     1   2   4
omit     5   1   2
omit     3   4   2
omit    -7   0   7
omit    -1   5   2
omit     1   2   0
omit    -3   1   6
omit    -9   2   4
omit    -6   1   4
omit    -5   1  11

CONF
REM RESI 0
WGHT    0.100000
FVAR       2.13206
O1    3    0.124544    0.753566    0.329624    11.00000    0.02875    0.05406 =
         0.02187    0.01197    0.01082    0.00211
O2    3    0.079578    1.022347    0.171450    11.00000    0.02748    0.02330 =
         0.01517    0.00002    0.00767    0.00033
O3    3    0.137168    0.629970    0.158422    11.00000    0.02881    0.02490 =
         0.03088    0.00889    0.01333    0.00786
O4    3    0.327881    0.807255    0.624666    11.00000    0.02245    0.04433 =
         0.02975   -0.00524    0.01124   -0.00985
O5    3    0.177787    0.506998    0.582404    11.00000    0.01974    0.02175 =
         0.02448   -0.00035    0.00983    0.00218
O6    3    0.145921    0.890049    0.635588    11.00000    0.02896    0.02152 =
         0.03021   -0.00507    0.01390   -0.00317
C1    1    0.114334    0.797474    0.228625    11.00000    0.01570    0.02971 =
         0.02026    0.00449    0.00503   -0.00071
C2    1    0.071714    1.005899    0.048216    11.00000    0.02431    0.02094 =
         0.01658    0.00021    0.00941   -0.00367
AFIX  13
H2    2    0.114794    1.154337    0.032276    11.00000   -1.20000
AFIX   0
C3    1    0.145280    0.764853    0.057762    11.00000    0.02968    0.03088 =
         0.02449    0.00339    0.01404    0.00433
AFIX  23
H3A   2    0.103724    0.668142   -0.021855    11.00000   -1.20000
H3B   2    0.236624    0.800594    0.079482    11.00000   -1.20000
AFIX   0
C4    1    0.226290    0.741756    0.615062    11.00000    0.02230    0.02763 =
         0.01547    0.00125    0.00694   -0.00030
C5    1    0.048644    0.499292    0.570266    11.00000    0.01688    0.01979 =
         0.01875    0.00305    0.00740    0.00140
AFIX  13
H5    2    0.037095    0.345317    0.611930    11.00000   -1.20000
AFIX   0
C6    1    0.045234    0.736884    0.639097    11.00000    0.02482    0.02667 =
         0.02520   -0.00069    0.01371    0.00106
AFIX  23
H6A   2   -0.040398    0.821199    0.595275    11.00000   -1.20000
H6B   2    0.065048    0.698909    0.726664    11.00000   -1.20000
AFIX   0
HKLF 4




REM  WORK1_a.res in P2(1)/n           New: P21/n
REM R1 =  0.0380 for    1054 Fo > 4sig(Fo)  and  0.0409 for all    1147 data
REM    109 parameters refined using      0 restraints

END

WGHT      0.0429      0.4448

REM Highest difference peak  0.314,  deepest hole -0.222,  1-sigma level  0.043
Q1    1   0.0000  0.5000  0.5000  10.50000  0.05    0.31
Q2    1   0.0342  0.6166  0.6038  11.00000  0.05    0.20
Q3    1   0.0000  1.0000  0.0000  10.50000  0.05    0.20
Q4    1   0.1322  0.5750  0.6505  11.00000  0.05    0.15
Q5    1   0.3423  0.6520  0.6413  11.00000  0.05    0.15
Q6    1   0.0234  1.0341  0.2363  11.00000  0.05    0.15
Q7    1   0.0429  1.0289  0.5779  11.00000  0.05    0.15
Q8    1   0.1006  0.8747  0.0356  11.00000  0.05    0.14
Q9    1   0.0546  0.8099  0.2831  11.00000  0.05    0.13
Q10   1   0.1627  0.8933  0.1578  11.00000  0.05    0.13
Q11   1   0.1844  0.7917  0.2987  11.00000  0.05    0.12
Q12   1   0.1193  0.5675  0.5002  11.00000  0.05    0.12
Q13   1   0.0786  0.5058  0.1923  11.00000  0.05    0.12
Q14   1   0.0789  1.0264  0.1122  11.00000  0.05    0.12
Q15   1   0.0778  0.7109  0.1829  11.00000  0.05    0.12
Q16   1   0.2544  0.8017  0.5683  11.00000  0.05    0.12
Q17   1   0.1941  0.5513  0.0847  11.00000  0.05    0.12
Q18   1   0.1970  1.0034  0.6801  11.00000  0.05    0.11
Q19   1   0.3826  0.9199  0.7586  11.00000  0.05    0.11
Q20   1   0.3758  0.7484  0.5934  11.00000  0.05    0.11
;
_shelx_res_checksum              96160
_shelx_hkl_file
;
  -2   0   1    0.10    0.40
  -2   0   1    0.00    0.20
  -2   0   1   -1.00    1.10
   2   0  -1    1.00    0.40
   2   0  -1    0.20    0.20
  -6   0   3   -0.30    0.70
   6   0  -3    0.00    0.90
  -6   0   3    0.10    0.50
   6   0  -3   -0.90    2.20
   8   0  -4 1530.35   43.10
  -8   0   4 1583.54   39.60
   8   0  -4 1557.74   40.20
  -8   0   4 1482.75   42.20
  10   0  -5    6.00    4.50
  12   0  -6  101.59    8.60
 -12   0   6   80.49    7.60
  14   0  -7   28.70    7.60
   0   1   0   -1.50    1.00
   0   1   0    0.10    1.00
   0  -1   0   -0.10    1.00
   0  -1   0   -1.40    0.80
  -4   1   2   82.49    3.70
   4   1  -2   86.29    4.80
   4  -1  -2   85.69    4.60
  -4  -1   2   85.99    3.90
  -4  -1   2   85.09    3.40
  -8   1   4  291.97   10.60
   8   1  -4  289.87   10.90
  -8  -1   4  253.87   10.60
   8  -1  -4  291.37   12.00
  -8  -1   4  301.17    8.80
  10   1  -5  184.98    9.50
 -10   1   5  184.58    8.90
 -10  -1   5  182.78    6.20
  10  -1  -5  169.28    9.90
 -10  -1   5  173.58    9.00
  12   1  -6   13.40    5.20
  12  -1  -6   11.90    5.80
  14   1  -7  104.29    9.80
 -14   1   7   85.29    9.30
  14  -1  -7   82.59   11.50
 -14  -1   7   69.19    9.10
   0  -2   0 1836.62   48.40
   0  -2   0 1855.11   49.10
   2  -2  -1 2754.62   72.19
  -2  -2   1 2832.72   72.69
   2  -2  -1 2900.81   71.99
  -2  -2   1 2790.92   72.69
   2  -2  -1 2745.53   73.89
  -2  -2   1 2787.52   72.29
  -4   2   2  347.67   10.20
   4   2  -2  327.17   10.40
  -4  -2   2  347.17   10.50
  -4  -2   2  341.87   10.60
   4  -2  -2  322.57   11.90
   4  -2  -2  338.77    9.60
  -6   2   3  588.64   16.90
   6   2  -3  578.94   17.70
   6  -2  -3  560.84   19.10
  -6  -2   3  584.94   17.40
  -6  -2   3  582.24   16.70
   6  -2  -3  577.34   15.30
   8   2  -4  232.48    9.80
  -8   2   4  247.88    9.50
  -8  -2   4  244.18    8.40
   8  -2  -4  237.78   11.50
  -8  -2   4  244.38    9.80
 -10   2   5  644.54   20.30
 -10  -2   5  631.44   18.50
  10  -2  -5  634.84   23.10
 -10  -2   5  644.34   20.80
 -12   2   6   -1.20    1.10
  12  -2  -6    1.50    6.20
 -12  -2   6    0.10    1.30
 -14   2   7   14.70    2.20
 -14  -2   7   14.60    2.20
   0  -3   0    6.90    2.60
   0  -3   0    5.90    2.20
  -2  -3   1 1542.55   40.30
  -2  -3   1 1515.75   41.40
  -2  -3   1 1523.65   41.10
   2  -3  -1 1529.45   42.70
   2  -3  -1 1551.14   40.70
   4   3  -2 4582.34  118.69
  -4  -3   2 4596.54  118.69
  -4  -3   2 4684.23  118.39
   4  -3  -2 4501.85  117.79
   4  -3  -2 4531.05  120.99
   6   3  -3  137.19    7.20
  -6   3   3  136.19    5.90
  -6  -3   3  146.89    6.70
   6  -3  -3  140.39    5.00
   6  -3  -3  161.78    9.10
  -6  -3   3  142.89    6.80
   8   3  -4   46.30    6.20
  -8   3   4   38.10    4.70
  -8  -3   4   34.00    4.40
   8  -3  -4   35.70    6.30
  -8  -3   4   38.70    5.30
 -10   3   5  371.86   13.50
 -10  -3   5  366.76   12.70
  10  -3  -5  357.26   17.10
 -10  -3   5  368.36   14.30
 -12   3   6   96.19    8.50
 -12  -3   6   96.49    9.20
 -12  -3   6  108.59    7.00
  12  -3  -6  113.19   12.10
   0  -4   0 6523.05  169.18
   0  -4   0 6590.54  170.68
  -2  -4   1   47.80    3.30
   2  -4  -1   44.70    5.70
  -2  -4   1   49.00    4.70
  -2  -4   1   53.79    4.60
   2  -4  -1   44.70    4.40
   4   4  -2  599.54   18.40
  -4  -4   2  581.24   18.30
  -4  -4   2  580.84   17.30
   4  -4  -2  598.74   20.80
   4  -4  -2  589.94   17.30
  -6  -4   3   12.90    3.70
   6  -4  -3   10.70    5.50
  -8  -4   4 1852.91   51.29
   8  -4  -4 1846.12   55.39
  -8  -4   4 1876.61   50.99
 -10  -4   5   -1.30    1.30
  10  -4  -5    0.70    6.40
 -10  -4   5   -2.80    4.00
  12  -4  -6   95.39   13.20
 -12  -4   6  104.59    8.10
 -12  -4   6   83.89   10.00
   0  -5   0    4.70    4.50
   0  -5   0    2.70    3.30
  -2  -5   1 3357.56   93.09
  -2  -5   1 3589.44   92.69
   2  -5  -1 3582.04   95.09
   2  -5  -1 3434.96   91.89
   4   5  -2  994.60   29.80
  -4  -5   2  939.51   28.10
   4  -5  -2  890.21   26.80
   4  -5  -2  920.81   30.90
   6  -5  -3  429.76   19.00
   6  -5  -3  434.96   14.10
  -6  -5   3  455.05   15.90
   8  -5  -4   39.50    9.40
  -8  -5   4   33.90    5.70
  10  -5  -5    3.80    8.20
 -10  -5   5    6.20    5.20
   0  -6   0  124.19    8.30
   0  -6   0  122.09   10.40
   2  -6  -1  352.06   16.60
   2  -6  -1  355.26   13.80
  -2  -6   1  367.76   14.50
   4  -6  -2  196.68    9.60
  -4  -6   2  195.98   10.80
   4  -6  -2  196.48   13.80
   6  -6  -3   14.20    8.30
  -6  -6   3    7.50    5.30
  15   0  -7   20.50    8.60
 -13   0   6   -1.70    1.10
  13   0  -6    1.80    5.90
  11   0  -5  549.65   19.80
 -11   0   5  550.84   18.70
   9   0  -4   -2.40    3.70
  -9   0   4    0.00    0.80
  -7   0   3 1318.37   35.70
  -7   0   3 1310.37   33.40
   7   0  -3 1260.17   36.30
  -5   0   2   -2.50    0.60
   5   0  -2   -1.60    0.70
  -5   0   2   -0.70    0.40
   5   0  -2   -5.40    2.00
  -3   0   2   -2.80    0.30
   3   0  -2   -1.90    0.60
  -3   0   2   -1.80    0.70
  -5   0   3  472.25   12.60
   5   0  -3  499.55   12.70
   5   0  -3  459.75   14.40
  -5   0   3  461.55   14.00
  -7   0   4    0.70    0.90
   7   0  -4   -2.60    2.10
  -7   0   4    0.20    0.60
  -9   0   5   41.10    5.00
   9   0  -5   41.10    4.80
  -9   0   5   38.90    1.90
 -11   0   6    0.30    1.10
  11   0  -6    2.80    4.10
 -13   0   7  219.38   11.60
  13   0  -7  236.18   13.10
  15   0  -8    7.00    7.80
  15  -1  -7    6.40    8.90
  13   1  -6   15.10    6.20
  13  -1  -6   12.00    7.00
  11   1  -5  188.78   10.50
 -11   1   5  184.48    9.50
  11  -1  -5  194.78   11.40
 -11  -1   5  174.28    9.50
  -9   1   4   81.69    6.00
   9   1  -4   72.89    6.50
  -9  -1   4   77.69    6.00
   9  -1  -4   73.79    7.10
  -9  -1   4   83.39    3.70
   7   1  -3   11.50    3.80
  -7   1   3    1.30    0.70
   7  -1  -3    1.60    3.20
  -7  -1   3    3.50    1.50
   5   1  -2   23.60    4.00
  -5   1   2   18.00    2.70
  -5  -1   2   21.80    2.80
  -5  -1   2   19.70    2.00
   5  -1  -2   20.50    3.50
  -1   1   0  458.65   14.20
   1   1   0  488.85   14.00
   1   1   0  510.75   13.80
  -1  -1   0  517.45   13.50
  -1  -1   0  572.44   13.90
  -3   1   2 2736.03   70.09
   3   1  -2 2853.01   70.09
  -3  -1   2 2412.36   69.79
   3  -1  -2 2709.03   71.19
  -3  -1   2 2800.82   70.49
  -3  -1   2 2771.62   69.99
   5   1  -3 1144.09   31.30
  -5   1   3 1169.68   31.30
   5  -1  -3 1143.29   32.50
  -5  -1   3 1179.88   31.60
  -5  -1   3 1153.48   30.60
  -7   1   4 1589.94   42.60
   7   1  -4 1563.14   42.70
  -7  -1   4 1575.54   42.80
  -7  -1   4 1571.84   41.20
   7  -1  -4 1551.74   44.00
   9   1  -5    3.60    2.90
  -9   1   5    0.90    0.90
  -9  -1   5    3.90    1.90
  -9  -1   5    1.40    0.90
   9  -1  -5    1.20    4.00
 -11   1   6  328.27   12.90
  11   1  -6  263.67   12.50
  11  -1  -6  340.57   14.80
 -11  -1   6  341.47   13.20
  13   1  -7   24.70    6.10
  13  -1  -7   27.50    7.10
  15  -1  -8   31.30    9.40
 -13   2   6  168.88   10.30
  13  -2  -6  187.78   13.90
 -13  -2   6  160.18   10.60
  11   2  -5  631.94   20.90
 -11   2   5  617.34   20.40
  11  -2  -5  622.14   23.40
 -11  -2   5  617.94   20.90
   9   2  -4   14.20    4.70
  -9  -2   4   13.60    2.80
   9  -2  -4   13.60    5.10
   7   2  -3  487.55   16.00
  -7   2   3  459.35   14.40
  -7  -2   3  469.45   14.90
  -7  -2   3  455.15   13.80
   7  -2  -3  450.75   16.60
  -5   2   2   14.50    1.60
   5   2  -2   17.80    3.40
   5  -2  -2   14.90    1.50
   5  -2  -2   17.60    3.80
  -5  -2   2   12.00    2.20
   3   2  -1 3613.74   96.19
  -3  -2   1 3795.62   95.79
  -3  -2   1 3723.13   95.99
   3  -2  -1 3663.33   95.39
   3  -2  -1 3753.92   97.59
  -1  -2   0  917.71   25.40
   1  -2   0  973.30   25.30
  -1  -2   0  876.41   24.70
   1  -2   0 1025.80   26.50
   1  -2  -1  139.49    4.90
  -1  -2   1  145.19    5.20
   1  -2  -1  149.19    4.10
  -1  -2   1  141.99    5.20
   1  -2  -1  133.59    5.80
   3   2  -2  509.35   14.50
   3   2  -2  518.65   14.60
  -3   2   2  527.85   14.20
   3  -2  -2  515.05   14.20
  -3  -2   2  505.65   14.80
  -3  -2   2  537.45   14.90
   3  -2  -2  520.75   16.30
   5   2  -3 3476.55   89.89
  -5   2   3 3457.15   89.69
   5  -2  -3 3437.56   92.09
   5  -2  -3 3449.75   88.79
  -5  -2   3 3463.85   90.39
  -5  -2   3 3507.15   89.89
   7   2  -4  807.92   23.90
  -7   2   4  844.92   23.80
  -7  -2   4  851.01   24.60
  -7  -2   4  843.52   23.30
  -9   2   5 1414.66   39.10
   9   2  -5 1334.67   38.90
   9  -2  -5 1414.56   42.10
  -9  -2   5 1426.46   37.90
  -9  -2   5 1436.36   39.90
 -11   2   6   82.79    7.70
  11  -2  -6   90.29    9.40
 -11  -2   6  100.09    6.60
 -11  -2   6   89.49    7.50
 -13   2   7  103.69    9.40
 -13  -2   7  108.99    9.40
  13  -2  -7  134.89   11.90
 -13   3   6    1.00    1.40
  13  -3  -6   -4.30    7.90
 -13  -3   6   -1.50    1.50
 -11   3   5  213.68   10.30
 -11  -3   5  194.48   10.90
  11  -3  -5  218.78   13.90
 -11  -3   5  222.78    9.20
  -9   3   4   55.69    5.20
  -9  -3   4   49.50    4.90
   9  -3  -4   58.69    8.10
  -9  -3   4   45.40    5.70
  -7   3   3  535.45   16.10
   7   3  -3  533.15   17.60
   7  -3  -3  532.85   14.50
  -7  -3   3  547.45   16.40
   7  -3  -3  517.35   19.20
  -7  -3   3  508.65   16.70
   5   3  -2  527.25   16.00
   5  -3  -2  432.66   17.40
  -5  -3   2  530.35   15.40
  -5  -3   2  530.25   15.70
   5  -3  -2  526.45   14.40
   3   3  -1 2649.83   70.49
  -3  -3   1 2732.83   69.39
   3  -3  -1 2665.53   71.99
  -3  -3   1 2651.14   70.09
   3  -3  -1 2661.93   69.49
   1  -3   0 1283.27   35.90
   1  -3  -1 1204.78   33.50
   1  -3  -1 1169.78   31.80
  -1  -3   1 1180.38   32.10
  -1  -3   1 1155.08   32.40
   3   3  -2 1951.50   52.49
  -3  -3   2 1985.50   52.69
   3  -3  -2 2001.60   51.99
  -3  -3   2 2003.20   52.19
   3  -3  -2 1962.20   54.59
   5   3  -3   84.69    5.00
  -5   3   3   80.69    4.10
   5  -3  -3   91.39    3.80
  -5  -3   3   85.79    5.40
   5  -3  -3   89.99    6.90
  -5  -3   3   85.99    5.00
  -7   3   4  641.44   18.80
   7   3  -4  636.64   19.70
   7  -3  -4  637.44   22.40
   7  -3  -4  639.34   17.50
  -7  -3   4  663.13   19.40
  -9   3   5  126.99    7.10
   9  -3  -5  125.59    9.90
  -9  -3   5  135.69    7.80
  -9  -3   5  120.89    6.80
 -11   3   6  285.27   11.60
 -11  -3   6  259.87   12.30
 -11  -3   6  284.77   10.90
  11  -3  -6  271.57   15.20
 -13   3   7    0.50    1.40
  13  -3  -7   -0.20    8.10
 -13  -3   7   -2.30    1.50
  11  -4  -5    9.00    7.90
 -11  -4   5   21.30    4.80
   9  -4  -4  481.45   20.70
  -9  -4   4  495.05   16.60
  -9  -4   4  465.65   16.90
  -7  -4   3   66.19    5.80
   7  -4  -3   60.69    8.10
  -7  -4   3   63.39    6.20
   5   4  -2  169.38    8.00
   5  -4  -2  167.98   10.10
  -5  -4   2  163.68    7.90
   5  -4  -2  160.78    6.50
   3   4  -1  850.21   25.00
   3  -4  -1  810.92   26.40
   3  -4  -1  822.92   23.70
  -3  -4   1  857.71   23.00
  -3  -4   1  848.12   24.50
  -1  -4   0  563.44   18.10
   1  -4   0  548.85   16.80
  -1  -4   0  563.14   15.00
  -1  -4   0  535.35   17.00
   1  -4   0  555.64   18.40
  -1  -4   1   39.80    4.50
  -1  -4   1   41.60    4.30
   1  -4  -1   36.00    5.20
   1  -4  -1   46.70    4.40
   3   4  -2  911.01   26.10
   3  -4  -2  906.51   28.40
   3  -4  -2  896.81   25.30
  -3  -4   2  880.01   26.10
  -3  -4   2  912.41   25.00
   5   4  -3  190.58    8.20
  -5  -4   3  196.48    8.70
   5  -4  -3  177.58    7.00
  -5  -4   3  202.08    7.90
   5  -4  -3  186.08   10.80
  -7  -4   4  445.36   15.20
   7  -4  -4  444.66   18.60
  -7  -4   4  459.75   15.50
  -9  -4   5    5.10    4.10
  -9  -4   5    3.10    1.30
   9  -4  -5   10.10    7.00
 -11   4   6    3.10    1.20
  11  -4  -6    3.90    7.50
 -11  -4   6    1.00    1.50
 -11  -4   6   10.50    4.60
   9  -5  -4   69.09   11.90
  -9  -5   4   80.19    7.60
   7  -5  -3  353.46   17.70
  -7  -5   3  378.06   14.30
   5   5  -2   12.90    5.40
   5  -5  -2    8.20    6.30
  -5  -5   2   13.90    4.40
   5  -5  -2   12.60    3.40
   3   5  -1   21.70    5.40
  -3  -5   1   10.20    4.10
   1  -5   0  214.78   11.10
   1  -5   0  196.48    8.90
   1  -5  -1    2.90    4.70
  -1  -5   1    1.10    3.40
   1  -5  -1   10.60    3.60
  -1  -5   1    6.40    4.60
   3   5  -2  281.87   14.50
   3  -5  -2  257.67   10.00
   3  -5  -2  269.17   13.40
  -3  -5   2  267.47   11.10
   5  -5  -3   97.89    9.80
  -5  -5   3  101.19    7.30
   5  -5  -3   89.39    5.80
  -7  -5   4    6.70    4.50
   7  -5  -4    0.40    6.30
  -7  -5   4   -0.80    1.20
  -9  -5   5   43.70    6.40
   9  -5  -5   56.89   11.00
  -7  -6   3  339.27   14.80
   7  -6  -3  324.07   18.70
  -5  -6   2   50.59    6.80
   5  -6  -2   74.89   11.10
   5  -6  -2   54.59    6.50
   3   6  -1   83.39    9.10
   3  -6  -1   96.89    7.40
   3  -6  -1   82.99   10.10
  -3  -6   1   76.69    7.80
  -1  -6   0   24.50    6.70
   1  -6   0   28.70    5.20
   1  -6   0   30.90    7.30
  -1  -6   0   22.30    5.20
  -1  -6   1   52.39    8.60
   1  -6  -1   72.09    6.80
   1  -6  -1   54.49    9.20
  -1  -6   1   78.59    7.30
   3  -6  -2   27.60    8.00
   3  -6  -2   31.90    5.00
  -3  -6   2   32.30    5.90
   5  -6  -3  154.28    8.50
  -5  -6   3  132.99    9.10
   5  -6  -3  157.58   12.90
  -7  -6   4   11.30    5.80
   7  -6  -4    2.70    8.20
 -14   0   6  476.25   19.00
  14   0  -6  514.25   21.30
  12   0  -5    3.50    5.30
 -12   0   5    0.00    1.20
 -10   0   4 1290.87   37.00
  10   0  -4 1300.47   38.40
  -8   0   3    0.10    0.70
   8   0  -3   -3.60    3.20
   6   0  -2 2844.42   74.09
  -6   0   2 2945.01   74.09
  -6   0   2 2892.51   75.89
   6   0  -2 2912.11   76.89
   4   0  -1   -0.40    0.70
  -4   0   1   -0.40    0.40
  -4   0   1   -1.30    0.60
   4   0  -1   -3.10    2.50
   2   0   0    3.50    0.60
   2   0   0    3.30    2.00
  -2   0   0    5.10    2.00
   4   0  -3   -2.70    0.70
  -4   0   3   -2.60    0.80
  -4   0   3   -2.30    0.40
   4   0  -3   -0.90    1.50
   6   0  -4 1843.32   49.99
  -6   0   4 1861.91   49.70
  -6   0   4 1836.12   47.90
   6   0  -4 1898.21   48.00
   8   0  -5   -2.00    2.50
  -8   0   5    0.10    0.70
  -8   0   5   -0.20    1.30
 -10   0   6 2195.68   60.29
  10   0  -6 2220.08   60.99
  12   0  -7    3.10    4.90
 -12   0   7   -0.50    1.10
  14   0  -8   26.40    7.60
  14   1  -6  221.28   14.00
 -14   1   6  160.78   10.90
  14  -1  -6  189.18   14.00
 -14  -1   6  153.68   11.10
 -12   1   5   64.49    7.10
  12  -1  -5   70.79    9.10
 -12  -1   5   57.99    7.10
 -10   1   4 1027.00   30.00
  10   1  -4  931.91   30.60
 -10  -1   4 1045.70   30.20
 -10  -1   4 1056.39   27.40
  10  -1  -4 1043.70   32.40
   8   1  -3 1074.49   31.40
  -8   1   3 1161.98   30.80
  -8  -1   3 1128.99   28.90
   8  -1  -3 1103.29   32.60
  -8  -1   3  939.11   30.40
  -6   1   2  384.96   12.30
   6   1  -2  401.36   13.60
  -6  -1   2  387.46   11.20
  -6  -1   2  402.46   12.50
   6  -1  -2  396.06   13.70
  -4   1   1 4834.32  125.29
   4  -1  -1 4896.41  126.69
  -4  -1   1 4900.11  125.39
  -2   1   2    3.80    1.00
   2  -1  -2    3.00    0.90
   2  -1  -2    1.20    1.50
  -2  -1   2    0.30    1.20
   4   1  -3 1510.65   39.60
  -4   1   3 1405.56   39.00
  -4   1   3 1514.65   39.90
  -4  -1   3 1562.04   39.60
  -4  -1   3 1495.45   39.60
  -4  -1   3 1543.85   40.40
   4  -1  -3 1572.74   41.20
   6   1  -4    4.70    2.00
  -6  -1   4    6.20    1.60
   6  -1  -4    4.90    2.80
  -8   1   5 2463.95   66.39
   8   1  -5 2492.95   66.39
   8  -1  -5 2492.05   67.99
  -8  -1   5 2511.45   66.79
  -8  -1   5 2500.15   64.69
  10   1  -6   28.80    4.90
 -10  -1   6   20.90    2.60
  10  -1  -6   18.60    5.00
 -12   1   7  121.79    8.60
  12   1  -7  122.39    8.70
 -12  -1   7  124.09    8.70
  12  -1  -7  143.69   10.60
 -14   1   8   73.99    9.10
  14  -1  -8   81.69   11.10
 -14  -1   8   84.09    9.30
 -14   2   6  181.88   11.40
 -14  -2   6  186.98   11.90
  14  -2  -6  203.68   15.60
  12  -2  -5   14.40    7.10
  10   2  -4 1335.57   40.00
 -10   2   4 1397.36   39.50
 -10  -2   4 1428.86   38.10
 -10  -2   4 1432.06   40.10
  10  -2  -4 1413.76   42.90
  -8   2   3  526.85   17.30
   8   2  -3  551.34   18.70
  -8  -2   3  588.74   17.90
   8  -2  -3  569.14   20.00
  -8  -2   3  571.54   16.40
  -6   2   2   71.99    4.40
   6   2  -2   72.69    6.20
  -6  -2   2   72.99    4.50
   6  -2  -2   66.79    5.40
  -6  -2   2   71.59    3.90
   6  -2  -2   72.09    2.60
   4   2  -1 2763.42   73.39
   4  -2  -1 2760.12   74.79
  -4  -2   1 2877.21   72.89
   4  -2  -1 2775.42   72.09
  -4  -2   1 2832.52   72.89
   2   2   0 2774.92   72.49
  -2  -2   0 2708.13   71.29
  -2  -2   0 2724.53   71.79
   2  -2   0 2734.13   73.09
   2  -2   0 2916.41   71.59
   0  -2   1 5645.94  145.19
   4   2  -3 1872.11   47.90
   4   2  -3 1806.82   47.90
  -4   2   3 1830.62   48.00
  -4  -2   3 1854.61   48.90
   4  -2  -3 1825.02   50.29
   4  -2  -3 1807.42   47.60
  -4  -2   3 1871.61   48.50
   6   2  -4 3595.94   93.09
  -6   2   4 3566.04   93.29
  -6  -2   4 3593.14   93.19
  -6  -2   4 3588.94   93.99
   6  -2  -4 3604.94   95.89
  -8   2   5  357.96   12.30
   8   2  -5  347.27   11.70
  -8  -2   5  343.87   11.30
   8  -2  -5  357.96   14.50
  -8  -2   5  369.26   13.00
 -10   2   6  249.68   10.60
 -10  -2   6  251.97   11.10
  10  -2  -6  254.37   12.90
 -10  -2   6  256.27    9.10
 -12  -2   7   41.40    4.80
  12  -2  -7   57.89    9.40
 -14   2   8  228.48   13.10
 -14  -2   8  242.38   13.50
  14  -2  -8  240.58   16.50
  12  -3  -5   20.90    8.60
 -12  -3   5   24.40    4.70
  10   3  -4   69.59    7.90
 -10   3   4   52.89    6.00
 -10  -3   4   49.40    7.00
  10  -3  -4   51.09    8.60
 -10  -3   4   55.79    5.30
  -8   3   3   -0.50    0.80
   8   3  -3   -4.00    5.40
  -8  -3   3   -0.20    1.00
  -8  -3   3    1.00    3.10
   8  -3  -3   -0.80    4.20
   6   3  -2  593.44   18.70
   6  -3  -2  588.94   20.60
   6  -3  -2  573.54   16.20
  -6  -3   2  605.64   17.90
  -6  -3   2  587.34   17.70
   4   3  -1  276.47   10.00
  -4  -3   1  275.47    8.80
  -4  -3   1  259.47    9.20
   4  -3  -1  263.77   11.10
   4  -3  -1  264.27    8.40
  -2  -3   0  447.86   13.80
  -2  -3   0  467.75   12.60
   2  -3   0  460.65   13.40
   2  -3   0  440.76   15.00
  -2  -3   0  455.85   14.30
   0  -3   1 9999.00  253.37
   0  -3   1 9721.63  252.37
   2  -3  -2  212.48    9.20
  -2  -3   2  219.98    8.00
   2  -3  -2  221.38    7.40
  -2  -3   2  224.58    7.80
   4   3  -3 2816.62   74.19
   4  -3  -3 2902.11   77.29
   4  -3  -3 2781.52   73.89
  -4  -3   3 2860.31   74.79
  -4  -3   3 2884.91   74.89
  -6   3   4 3517.35   91.19
   6   3  -4 3517.55   91.39
   6  -3  -4 3445.46   90.49
  -6  -3   4 3578.14   91.99
   6  -3  -4 3472.35   94.99
  -6  -3   4 3545.75   92.39
  -8   3   5  637.34   19.20
  -8  -3   5  630.04   20.30
   8  -3  -5  647.54   23.00
  -8  -3   5  635.44   19.40
  10  -3  -6   20.50    6.50
 -10  -3   6   15.40    3.90
  12  -3  -7   62.89   10.40
 -12  -3   7   50.89    6.20
 -12  -4   5   16.20    5.20
  12  -4  -5   25.60    9.80
  10  -4  -4  -11.30    6.10
 -10  -4   4    3.10    4.00
  -8  -4   3    9.30    4.00
   8  -4  -3    5.00    5.60
   6  -4  -2 5101.19  138.79
  -6  -4   2 5276.47  135.39
   4   4  -1   90.89    6.20
  -4  -4   1   80.89    5.80
  -4  -4   1   87.99    4.60
   4  -4  -1   83.29    4.60
   4  -4  -1   87.99    7.40
  -2  -4   0  333.27   12.30
   2  -4   0  333.77   11.30
  -2  -4   0  337.17    9.70
   2  -4   0  348.67   13.30
  -2  -4   0  334.07   11.70
   0  -4   1  416.16   14.30
   0  -4   1  402.56   13.40
   0  -4  -1  416.96   14.70
   0  -4  -1  406.76   13.40
   2  -4  -2    1.30    2.50
   2  -4  -2    4.30    4.00
  -2  -4   2   -1.30    2.90
  -2  -4   2    0.80    2.80
   4   4  -3  121.09    6.00
  -4  -4   3  105.49    6.80
   4  -4  -3  114.39    8.40
   4  -4  -3  121.69    5.60
  -4  -4   3  122.89    5.90
   6  -4  -4   36.60    6.70
  -6  -4   4   42.60    5.10
  -6  -4   4   40.40    5.40
  -8  -4   5  180.78    9.20
  -8  -4   5  175.18    9.30
   8  -4  -5  191.28   12.30
 -10  -4   6   35.30    5.60
  10  -4  -6   41.10    9.20
 -12   4   7  134.89    9.30
  12  -4  -7  135.69   14.10
 -12  -4   7  130.99   11.20
 -12  -4   7  139.79    9.10
 -10  -5   4   11.60    5.30
  10  -5  -4   10.10    8.60
  -8  -5   3   55.69    7.00
   8  -5  -3   61.19   10.60
   6   5  -2   -2.10    5.70
   6  -5  -2    2.50    6.10
  -6  -5   2    3.00    4.20
   6  -5  -2    0.80    3.00
   4   5  -1  131.49    8.60
  -4  -5   1  126.99    7.70
   4  -5  -1  124.89   10.50
   4  -5  -1  129.39    6.60
   2  -5   0   19.00    4.00
   2  -5   0   24.40    6.00
  -2  -5   0   19.50    5.20
  -2  -5   0   14.20    4.20
   0  -5   1 2438.46   65.49
   0  -5  -1 2472.15   65.49
   0  -5  -1 2450.75   67.49
   0  -5   1 2376.86   66.79
   2  -5  -2  211.08   11.50
  -2  -5   2  200.78    9.50
   2  -5  -2  197.88    8.70
   4  -5  -3   45.50    4.90
   4  -5  -3   43.30    7.70
  -4  -5   3   36.20    5.30
  -6  -5   4  545.15   18.50
   6  -5  -4  550.94   22.10
   6  -5  -4  532.65   16.80
  -6  -5   4  545.25   17.80
  -8  -5   5   -1.70    1.20
  -8  -5   5   -1.10    4.50
   8  -5  -5   -1.70    6.80
  10  -5  -6    6.60    8.60
 -10  -5   6   12.00    5.60
   6  -6  -2    1.90    7.90
  -6  -6   2   18.30    5.70
   4   6  -1    9.20    7.40
   4  -6  -1   -0.60    6.70
   4  -6  -1    8.40    4.30
  -4  -6   1   10.30    5.00
   2   6   0  129.39   10.20
   2  -6   0  106.29    8.10
  -2  -6   0  135.59    8.80
   2  -6   0  123.69   11.10
   0  -6   1  274.77   11.90
   0  -6   1  279.47   13.60
   0  -6  -1  269.17   12.00
   0  -6  -1  268.77   14.00
  -2  -6   2  174.28    9.70
   2  -6  -2  175.58    9.00
   2  -6  -2  153.48   11.50
  -2  -6   2  150.28    9.90
   4  -6  -3   67.59   10.40
  -4  -6   3   69.89    7.90
   4  -6  -3   73.39    7.00
   6  -6  -4  112.99   12.80
  -6  -6   4  116.99    9.40
   6  -6  -4  112.89   10.70
  15   0  -6    4.80    8.30
  13   0  -5   11.50    6.50
 -11   0   4   -0.60    1.00
  11   0  -4    2.60    5.10
   9   0  -3  133.99    8.80
  -9   0   3  168.98    7.90
   7   0  -2   -2.80    3.10
  -7   0   2    0.20    0.60
   5   0  -1 6790.02  175.38
   3   0   0    0.40    3.30
   3   0   0   -1.10    0.70
  -3   0   0   -0.90    0.40
  -1   0  -1   82.49    3.20
   1   0   1   88.39    3.40
   1   0  -2    0.70    0.80
  -1   0   2    0.60    0.70
   3   0  -3   11.70    1.80
  -3   0   3   12.40    1.30
  -3   0   3    8.90    1.70
  -5   0   4    0.20    1.00
  -5   0   4   -0.50    0.40
   5   0  -4   -0.90    1.60
  -7   0   5  145.59    6.50
   7   0  -5  135.19    6.50
  -7   0   5  134.89    4.50
   9   0  -6   -2.30    2.90
  -9   0   6    0.00    1.40
  -9   0   6    0.20    0.80
  11   0  -7   53.79    6.80
 -11   0   7   46.90    6.40
  13   0  -8    4.20    5.60
  15   0  -9  711.93   27.40
 -15   0   9  652.53   24.50
 -13   1   5    1.20    1.40
  13  -1  -5    1.90    6.80
 -13  -1   5   -1.80    1.30
 -11   1   4   76.79    6.80
  11   1  -4   92.79    8.00
  11  -1  -4   85.39    9.30
 -11  -1   4   75.69    7.10
   9   1  -3 1662.03   48.80
   9  -1  -3 1746.23   49.99
  -9  -1   3 1786.22   45.60
  -9  -1   3 1759.82   47.90
   7   1  -2  600.94   19.90
  -7   1   2  615.44   18.30
   7  -1  -2  615.64   20.10
  -7  -1   2  629.54   18.50
  -7  -1   2  608.14   16.90
  -5   1   1 1002.30   27.20
   5   1  -1  997.40   28.30
   5  -1  -1  983.80   25.60
   5  -1  -1  967.20   28.60
  -5  -1   1 1012.40   27.30
  -5  -1   1  998.10   26.40
  -3   1   0 1399.56   36.60
   3   1   0 1434.66   38.00
  -3   1   0 1408.76   37.30
   3  -1   0 1321.77   38.20
  -3  -1   0 1394.56   37.00
   3  -1   0 1543.05   36.70
  -3  -1   0 1433.26   37.30
   1   1   1   35.00    1.90
   1   1   1   31.30    2.70
  -1   1  -1   35.40    2.10
   1   1   1   32.70    2.50
  -1  -1  -1   34.30    2.00
  -1  -1  -1   30.70    2.10
   1  -1   1   36.10    2.20
  -1   1   2  700.63   18.00
   1   1  -2  635.84   17.70
  -1  -1   2  694.53   18.20
   1  -1  -2  668.13   18.00
  -1  -1   2  680.53   17.70
   1  -1  -2  686.93   18.90
  -3   1   3 3159.08   78.29
  -3   1   3 3013.50   78.79
   3   1  -3 3047.79   78.09
  -3  -1   3 3070.89   78.79
   3  -1  -3 3000.10   79.89
   5   1  -4   56.09    3.00
  -5   1   4   59.69    3.50
  -5  -1   4   57.49    3.80
  -5  -1   4   62.59    3.20
   5  -1  -4   59.09    4.30
  -5  -1   4   57.19    3.90
  -7   1   5  950.50   27.00
   7   1  -5  936.61   26.60
   7  -1  -5  948.51   28.30
  -7  -1   5  970.30   25.70
  -7  -1   5  960.10   27.40
  -9   1   6 2448.26   66.29
   9   1  -6 2385.56   65.89
  -9  -1   6 2469.65   66.69
   9  -1  -6 2548.25   68.09
  -9  -1   6 2478.35   64.19
 -11   1   7 1517.55   42.40
  11  -1  -7 1442.86   43.80
 -11  -1   7 1474.65   42.70
 -13   1   8   17.50    2.10
 -13  -1   8   15.60    2.00
  13  -2  -5   68.69   11.10
 -11   2   4  379.26   14.40
  11   2  -4  378.16   15.00
  11  -2  -4  378.16   17.50
 -11  -2   4  416.46   13.40
 -11  -2   4  376.56   14.70
  -9   2   3  277.17   10.80
   9   2  -3  275.67   12.80
  -9  -2   3  281.67    9.30
  -9  -2   3  270.57   11.10
   9  -2  -3  273.07   13.40
   7   2  -2   17.00    5.50
   7  -2  -2   11.40    4.20
  -7  -2   2    8.40    2.30
   5   2  -1  539.25   16.80
  -5   2   1  542.55   15.60
  -5  -2   1  552.74   15.80
   5  -2  -1  526.85   14.50
   5  -2  -1  519.55   17.70
  -5  -2   1  546.75   15.60
   3   2   0  326.77   11.00
   3  -2   0  380.66   10.10
   3  -2   0  329.37   11.80
  -3  -2   0  346.17   10.10
  -3  -2   0  340.07   10.40
  -1  -2  -1  258.37    8.90
  -1  -2  -1  270.17    7.20
  -1  -2  -1  261.77    8.20
   1  -2   1  270.77    8.20
   1  -2   1  259.57    8.90
   1   2  -2  404.06   12.20
   1  -2  -2  415.06   13.30
  -1  -2   2  423.56   12.20
   1  -2  -2  444.16   12.10
  -1  -2   2  419.26   12.40
   3   2  -3   28.40    2.00
   3   2  -3   29.70    2.00
  -3   2   3   31.10    2.20
   3  -2  -3   28.70    3.60
  -3  -2   3   32.50    3.00
   3  -2  -3   28.40    2.20
  -5   2   4 1232.78   32.50
   5   2  -4 1229.38   32.10
   5  -2  -4 1176.18   34.70
  -5  -2   4 1197.98   33.40
  -5  -2   4 1220.58   32.80
  -7   2   5  898.81   24.30
   7   2  -5  846.42   23.50
  -7  -2   5  890.91   23.90
  -7  -2   5  901.91   25.20
   7  -2  -5  718.03   26.10
  -9   2   6   97.09    6.50
   9   2  -6  100.49    5.40
   9  -2  -6   95.19    8.10
  -9  -2   6   94.79    5.20
  -9  -2   6   97.79    6.90
 -11   2   7 1029.20   30.50
 -11  -2   7  996.00   31.10
 -11  -2   7 1030.00   28.60
  11  -2  -7 1036.10   33.50
 -13   2   8    2.20    1.50
 -13  -2   8    0.40    1.40
  13  -2  -8   12.60    7.20
 -13   3   5  111.69    9.20
 -13  -3   5   91.19    9.80
  13  -3  -5  111.39   14.00
  11   3  -4   85.59    8.30
 -11   3   4   59.99    6.80
  11  -3  -4   55.99    9.90
 -11  -3   4   61.59    5.90
   9   3  -3 1630.84   46.80
  -9   3   3 1605.34   44.80
  -9  -3   3 1626.64   44.50
   9  -3  -3 1667.63   49.40
  -9  -3   3 1632.24   45.40
   7   3  -2 1592.24   44.50
   7  -3  -2 1539.15   46.50
  -7  -3   2 1567.64   43.00
  -7  -3   2 1649.73   43.40
   7  -3  -2 1554.94   41.20
   5   3  -1   36.80    4.80
  -5  -3   1   35.20    3.70
  -5  -3   1   35.20    3.90
   5  -3  -1   31.80    5.50
   5  -3  -1   26.70    2.70
   3   3   0  128.09    6.40
  -3  -3   0  126.89    4.70
  -3  -3   0  119.09    5.40
   1  -3   1  617.74   18.80
   1  -3   1  622.64   17.70
  -1  -3  -1  616.44   18.90
  -1  -3  -1  608.84   17.80
  -1  -3   2 2032.00   53.39
   1  -3  -2 1973.80   54.69
   1  -3  -2 2041.90   52.99
  -1  -3   2 1996.80   53.39
   3   3  -3 1301.57   34.70
   3  -3  -3 1285.57   37.30
  -3  -3   3 1311.57   35.50
   3  -3  -3 1290.87   34.70
  -5   3   4  276.47    8.70
   5   3  -4  272.37    8.90
  -5  -3   4  277.67    9.90
   5  -3  -4  269.97   12.00
  -5  -3   4  281.87    9.90
   5  -3  -4  275.07    8.60
  -7   3   5   45.40    4.30
   7   3  -5   48.70    4.30
   7  -3  -5   46.60    6.50
  -7  -3   5   50.79    5.00
  -7  -3   5   46.40    5.40
  -9   3   6 1218.58   33.80
  -9  -3   6 1191.98   33.60
   9  -3  -6 1197.78   37.80
  -9  -3   6 1172.38   35.00
  11  -3  -7   19.20    7.00
 -11  -3   7   27.90    4.70
 -13   3   8  160.18   10.70
  13  -3  -8  171.28   14.90
 -13  -3   8  170.68   11.70
  11  -4  -4  129.99   13.50
 -11  -4   4  150.88    8.40
 -11  -4   4  132.49    9.80
   9   4  -3   69.19   10.20
   9  -4  -3   88.29   10.30
  -9  -4   3   94.09    6.70
  -9  -4   3   86.79    7.40
   7   4  -2  647.94   21.50
  -7  -4   2  641.44   20.10
   7  -4  -2  628.04   23.60
  -7  -4   2  640.64   19.60
   5   4  -1 1219.28   34.80
   5  -4  -1 1184.68   36.80
  -5  -4   1 1240.98   32.80
   5  -4  -1 1141.49   32.60
  -5  -4   1 1222.48   34.10
   3   4   0  153.18    8.00
  -3  -4   0  161.38    5.60
  -3  -4   0  158.48    7.20
   3  -4   0  161.48    9.10
   3  -4   0  163.48    7.10
   1  -4   1   44.80    4.50
  -1  -4  -1   41.60    5.00
   1  -4   1   40.80    4.70
  -1  -4  -1   37.50    4.30
  -1  -4   2    0.70    2.60
   1  -4  -2    0.30    2.60
   1  -4  -2    3.10    3.80
  -1  -4   2   -0.10    3.00
  -3  -4   3   -0.50    2.80
   3  -4  -3   -0.90    2.40
   3  -4  -3    1.80    3.80
   5   4  -4   72.09    6.10
  -5  -4   4   71.69    6.00
   5  -4  -4   71.99    7.80
  -5  -4   4   71.09    5.40
   5  -4  -4   68.09    4.30
  -7  -4   5 1270.17   35.70
  -7  -4   5 1236.98   35.80
   7  -4  -5 1253.77   39.40
  -9   4   6    2.10    1.00
  -9  -4   6    0.80    1.20
   9  -4  -6    6.50    6.40
  -9  -4   6   -6.60    4.00
  11  -4  -7   25.70    8.60
 -11  -4   7   35.10    5.80
  -9  -5   3  168.38   10.20
   9  -5  -3  167.78   14.40
   7  -5  -2  255.77   15.20
  -7  -5   2  283.67   12.00
   5   5  -1   96.29    8.60
  -5  -5   1  106.79    7.40
   5  -5  -1   96.39    9.70
   5  -5  -1  100.69    6.00
   3   5   0  192.28   10.20
  -3  -5   0  185.38    9.20
   3  -5   0  196.58    8.60
   3  -5   0  208.38   11.70
  -1  -5  -1  555.64   18.10
   1  -5   1  549.85   17.80
   1  -5   1  565.84   19.70
  -1  -5  -1  563.64   19.70
  -1  -5   2  344.87   13.60
  -3  -5   3  446.16   15.60
   3  -5  -3  441.96   18.00
   3  -5  -3  432.06   14.40
  -5  -5   4   40.00    5.80
  -5  -5   4   54.59    6.40
   5  -5  -4   50.29    4.90
   5  -5  -4   51.59    8.40
   7  -5  -5   24.30    8.20
  -7  -5   5   21.40    5.10
  -9  -5   6   72.09    7.90
  -9  -5   6   52.49    7.80
   9  -5  -6   62.19   10.80
  -7  -6   2    8.80    5.70
   7  -6  -2    4.20    8.20
   5  -6  -1   18.60    8.20
  -5  -6   1   23.20    5.70
   5  -6  -1    6.50    4.70
   3   6   0    3.50    6.20
   3  -6   0    9.10    4.20
   3  -6   0   10.40    7.20
  -3  -6   0    2.60    4.60
  -1  -6  -1    5.10    4.50
   1  -6   1    5.10    4.30
  -1  -6  -1    3.20    5.90
   1  -6   1    0.60    5.90
  -1  -6   2   61.69    7.10
   1  -6  -2   74.49    9.30
  -1  -6   2   52.39    8.40
   1  -6  -2   82.89    7.10
   3  -6  -3   65.39    7.00
   3  -6  -3   60.29   10.20
  -3  -6   3   66.39    7.50
   5  -6  -4   36.00    5.40
   5  -6  -4   45.60   10.00
  -5  -6   4   41.40    7.00
  -7  -6   5  144.09   10.50
   7  -6  -5  153.88   14.40
  14   0  -5   24.10    8.30
  12   0  -4   52.79    8.60
 -10   0   3    0.80    1.00
  10   0  -3    1.90    4.50
  -8   0   2  673.83   19.90
   8   0  -2  622.34   21.20
   6   0  -1    0.00    1.10
   6   0  -1   -5.20    3.50
  -6   0   1    0.30    0.60
   2   0   1    7.70    3.20
   0   0  -2    8.20    1.20
   0   0   2    9.00    1.40
   2   0  -3   -5.00    1.00
  -2   0   3   -5.70    1.10
  -4   0   4   12.40    1.50
   4   0  -4   12.60    2.10
  -6   0   5    0.30    0.50
  -6   0   5   -0.30    1.10
   6   0  -5    1.40    2.00
  -8   0   6 1602.64   45.10
  -8   0   6 1655.23   42.70
   8   0  -6 1665.53   45.30
 -10   0   7    1.00    1.70
  10   0  -7   -3.30    3.80
 -10   0   7   -0.10    0.90
  12   0  -8 1044.40   32.20
 -12   0   8 1032.40   31.90
 -14   0   9   -1.00    1.50
  14   0  -9    1.80    6.40
  14  -1  -5    5.40    7.90
  12   1  -4  724.13   24.90
 -12   1   4  725.43   23.40
  12  -1  -4  715.23   26.20
 -12  -1   4  696.73   23.40
  10   1  -3 2656.13   74.59
 -10   1   3 2763.52   73.39
 -10  -1   3 2663.53   73.29
  10  -1  -3 2724.33   75.89
 -10  -1   3 2840.52   70.89
   8   1  -2  152.98    9.90
  -8   1   2  181.08    8.10
   8  -1  -2  170.98    9.60
  -8  -1   2  177.18    5.90
  -8  -1   2  171.58    7.90
   6   1  -1  302.67   12.30
  -6   1   1  309.07   10.30
   6  -1  -1  315.67    8.30
  -6  -1   1  309.37   10.30
   6  -1  -1  313.57    8.20
   6  -1  -1  295.47   11.60
  -6  -1   1  305.47    9.10
   4   1   0   53.39    4.60
  -4   1   0   42.50    3.10
   4  -1   0   34.70    4.20
   4  -1   0   35.70    2.00
  -4  -1   0   39.20    3.00
  -4  -1   0   40.50    2.50
  -2  -1   3  777.72   20.90
   2  -1  -3  761.62   21.70
   4   1  -4   15.10    1.50
  -4   1   4   16.70    2.20
  -4  -1   4   15.30    2.00
   4  -1  -4   16.40    2.80
  -6   1   5 1934.91   50.79
  -6   1   5 1844.22   49.30
   6   1  -5 1864.91   49.99
  -6   1   5 1888.41   49.10
  -6  -1   5 1900.31   51.19
  -6  -1   5 1945.01   49.80
   6  -1  -5 1940.11   51.99
  -8   1   6   68.59    5.30
   8   1  -6   56.09    4.20
  -8   1   6   66.49    2.50
  -8  -1   6   63.39    3.70
  -8  -1   6   64.19    5.40
   8  -1  -6   63.69    5.50
 -10   1   7   63.89    6.20
 -10  -1   7   67.49    6.40
 -10  -1   7   61.99    4.00
  10  -1  -7   63.29    6.90
 -12   1   8   84.09    8.10
  12   1  -8  102.79    8.10
 -12  -1   8   76.59    8.00
  12  -1  -8   95.89    9.30
  14  -1  -9   25.90    8.00
 -14   2   5  101.29    9.30
 -14  -2   5   94.79   10.00
  14  -2  -5  120.29   13.60
  12   2  -4   74.69    8.40
  12  -2  -4   54.39    9.40
  10   2  -3   54.49    7.90
 -10   2   3   51.29    6.00
 -10  -2   3   56.79    4.40
  10  -2  -3   53.69    8.30
 -10  -2   3   48.80    6.10
   8   2  -2    9.20    6.20
  -8  -2   2    5.10    2.20
   8  -2  -2    6.50    4.30
   6   2  -1 3676.53   95.59
  -6   2   1 3587.54   93.99
   6  -2  -1 3468.05   92.49
   6  -2  -1 3666.43   96.89
  -6  -2   1 3597.94   93.69
  -6  -2   1 3680.03   94.19
   4   2   0  610.54   18.70
  -4  -2   0  632.94   17.50
   4  -2   0  620.14   19.50
   4  -2   0  620.14   16.90
  -4  -2   0  620.04   17.60
   2   2   1  388.46   11.20
   2   2   1  400.36   12.70
  -2  -2  -1  389.76   11.80
   2  -2   1  422.66   11.70
  -2  -2  -1  408.26   11.10
   2  -2   1  407.46   13.00
   0  -2  -2 3751.22   95.29
   0  -2   2 3618.84   95.59
   0  -2  -2 3711.33   96.39
   0  -2   2 3700.53   95.39
   2   2  -3 2643.34   68.09
  -2   2   3 2627.14   67.79
   2  -2  -3 2637.24   68.49
   2  -2  -3 2625.64   70.29
  -2  -2   3 2675.13   68.99
  -2  -2   3 2671.03   68.09
  -4   2   4 1545.15   40.20
   4  -2  -4 1535.85   42.60
  -4  -2   4 1550.04   40.80
   4  -2  -4 1490.35   40.00
   6   2  -5 1938.51   51.69
  -6   2   5 1959.40   52.69
  -6  -2   5 2022.00   53.79
   6  -2  -5 1999.30   55.29
  -6  -2   5 2042.90   52.79
  -8   2   6   40.70    4.80
   8   2  -6   38.80    3.30
  -8   2   6   35.30    2.10
   8  -2  -6   34.10    5.60
  -8  -2   6   31.50    4.80
  -8  -2   6   34.20    3.80
 -10   2   7  189.88    9.50
  10  -2  -7  201.28   11.40
 -10  -2   7  196.68    8.00
 -10  -2   7  195.28    9.90
 -12   2   8  298.67   13.20
 -12  -2   8  294.17   13.50
 -12  -2   8  314.97   10.90
  12  -2  -8  284.47   15.40
 -14   2   9    6.30    1.90
 -14  -2   9    7.30    2.00
  14  -2  -9   27.00    8.80
 -12   3   4   97.59    7.60
 -12  -3   4   74.39    8.60
  12  -3  -4   92.29   12.00
 -12  -3   4   98.59    6.90
  10   3  -3    0.00    6.70
 -10  -3   3    9.80    3.60
  10  -3  -3    3.20    6.20
 -10  -3   3   -0.30    1.10
   8   3  -2 1547.15   44.50
  -8  -3   2 1568.94   42.70
  -8  -3   2 1549.64   42.10
   8  -3  -2 1506.45   46.10
   6   3  -1  182.08    9.20
   6  -3  -1  183.48   10.10
  -6  -3   1  177.88    7.50
  -6  -3   1  180.78    7.40
   6  -3  -1  172.18    6.10
   4   3   0 1440.36   39.30
  -4  -3   0 1436.76   37.30
   4  -3   0 1363.16   40.10
  -4  -3   0 1383.96   38.10
   4  -3   0 1385.56   37.30
   2   3   1  799.12   23.80
  -2  -3  -1  816.82   21.20
   2  -3   1  786.42   24.00
  -2  -3  -1  810.42   22.80
   2  -3   1  819.52   22.50
   0  -3  -2   88.09    5.30
   0  -3   2   63.09    4.00
   0  -3   2   70.29    4.50
   0  -3  -2   85.29    4.20
  -2  -3   3 2946.71   76.29
  -2  -3   3 2953.40   76.99
   2  -3  -3 2870.41   78.59
   2  -3  -3 2960.80   76.39
  -4   3   4   28.30    2.50
   4   3  -4   30.00    2.70
  -4  -3   4   31.60    4.00
   4  -3  -4   29.20    5.00
   4  -3  -4   30.40    2.70
   6   3  -5  288.27    8.70
  -6   3   5  286.97    9.40
   6  -3  -5  286.57    8.80
   6  -3  -5  272.87   12.50
  -6  -3   5  281.37   10.70
  -6  -3   5  278.67   10.30
  -8   3   6  737.03   21.50
   8  -3  -6  716.33   25.20
  -8  -3   6  707.73   22.70
  -8  -3   6  748.23   21.80
 -10  -3   7   31.20    4.60
  10  -3  -7   25.80    6.70
 -12   3   8   -0.80    1.30
 -12  -3   8    2.00    1.40
  12  -3  -8   -2.00    7.20
 -12  -3   8    7.60    4.50
 -12  -4   4  196.28   10.40
  12  -4  -4  183.28   16.20
 -12  -4   4  167.18   11.40
  10  -4  -3  187.38   13.90
 -10  -4   3  202.38   10.40
 -10  -4   3  205.28    9.70
   8   4  -2  578.44   21.20
   8  -4  -2  606.04   23.20
  -8  -4   2  594.04   19.00
  -8  -4   2  599.64   18.90
   6   4  -1  459.85   16.60
   6  -4  -1  447.26   18.20
  -6  -4   1  436.56   15.00
   4   4   0   84.49    6.90
   4  -4   0   70.39    7.00
  -4  -4   0   78.49    4.20
  -4  -4   0   73.09    5.20
   4  -4   0   78.59    5.00
   2   4   1 1032.00   30.10
   2  -4   1  927.41   28.20
  -2  -4  -1 1037.80   28.80
   2  -4   1 1039.00   30.50
   0  -4   2  594.14   18.20
   0  -4  -2  502.65   18.60
   0  -4   2  582.94   17.50
   0  -4  -2  574.44   17.20
   2  -4  -3  666.73   19.20
  -2  -4   3  654.33   19.30
  -2  -4   3  611.94   19.50
   2  -4  -3  658.93   21.70
   4   4  -4 2523.35   66.29
  -4  -4   4 2555.74   67.69
   4  -4  -4 2473.05   66.59
   4  -4  -4 2562.04   70.49
  -6  -4   5  177.78    8.60
  -6  -4   5  174.08    8.60
   6  -4  -5  174.58   11.00
   8  -4  -6  356.76   16.90
  -8  -4   6  374.26   13.60
  -8  -4   6  360.16   13.80
 -10   4   7   59.19    6.30
 -10  -4   7   75.59    7.00
 -10  -4   7   73.09    8.10
  10  -4  -7   73.49   10.40
  12  -4  -8   57.59   11.40
 -12  -4   8   48.50    6.80
 -10  -5   3  170.58   10.50
  10  -5  -3  199.28   16.40
  -8  -5   2   56.59    7.20
   8  -5  -2   71.39   11.20
   6   5  -1   76.69    8.70
   6  -5  -1   82.39   10.40
  -6  -5   1   78.09    7.10
   6  -5  -1   81.09    5.50
   4   5   0   78.29    7.80
  -4  -5   0   80.39    6.70
   4  -5   0  112.69   10.00
   4  -5   0  107.69    6.30
   2   5   1 1660.23   47.10
   2  -5   1 1620.24   47.30
  -2  -5  -1 1607.74   45.30
   2  -5   1 1631.04   44.90
   0  -5  -2   45.30    7.20
   0  -5   2   45.80    6.60
   0  -5  -2   38.20    5.00
   0  -5   2   36.90    5.20
  -2  -5   3  941.01   27.40
   2  -5  -3  910.01   29.70
   2  -5  -3  870.31   26.40
   4  -5  -4  451.65   15.10
  -4  -5   4  465.15   16.40
   4  -5  -4  456.05   19.10
  -4  -5   4  491.65   17.30
  -6  -5   5    8.50    4.80
   6  -5  -5   11.70    6.90
   6  -5  -5   14.00    3.60
   8  -5  -6   46.20    9.70
  -8  -5   6   49.00    6.90
  10  -5  -7   90.69   13.10
 -10  -5   7   75.99    8.40
 -10  -5   7   77.09    9.30
  -6  -6   1  186.68   11.10
   6  -6  -1  189.58   14.70
   4   6   0    3.60    6.60
  -4  -6   0    7.40    5.20
   4  -6   0    9.30    4.30
   4  -6   0    1.30    7.30
   2   6   1  110.99   10.20
   2  -6   1  109.49    8.00
  -2  -6  -1  100.29    8.20
   2  -6   1  105.89   10.50
   0  -6  -2  114.29   10.50
   0  -6  -2  114.19    8.10
   0  -6   2  102.99    7.90
   0  -6   2  107.19    9.10
   2  -6  -3   75.09   10.50
  -2  -6   3   95.49    8.20
   2  -6  -3   94.39    7.40
   4  -6  -4   91.39    7.20
   4  -6  -4   93.09   10.90
  -4  -6   4   84.59    8.30
   6  -6  -5   -2.60    5.30
  -6  -6   5    3.20    5.40
   6  -6  -5    2.20    7.90
  13   0  -4    8.80    7.10
  11   0  -3 1541.35   46.60
 -11   0   3 1627.34   44.90
  -9   0   2    0.00    0.90
   9   0  -2   -4.70    4.60
   7   0  -1 7510.65  199.88
  -7   0   1 7897.31  198.48
  -5   0   0   -2.20    0.50
   5   0   0   -2.10    4.10
  -1   0  -2    3.80    1.90
   1   0   2    5.90    2.20
   3   0  -4   -0.70    1.20
  -3   0   4   -0.80    1.00
  -3   0   4   -0.90    1.40
  -5   0   5   32.40    3.40
   5   0  -5   32.80    3.10
  -5   0   5   31.30    2.40
  -7   0   6   -0.30    1.40
   7   0  -6    1.50    2.40
  -7   0   6   -0.40    0.50
  -9   0   7 1046.70   27.50
  -9   0   7 1061.29   30.40
   9   0  -7  993.70   30.10
  11   0  -8   -1.70    4.20
 -11   0   8   -0.50    1.00
 -13   0   9 1815.12   51.79
  13   0  -9 1771.02   51.89
  13   1  -4  501.15   19.60
 -13   1   4  468.15   17.80
  13  -1  -4  469.35   21.60
 -13  -1   4  459.65   17.90
 -11   1   3  420.16   15.30
  11   1  -3  423.16   16.80
 -11  -1   3  410.26   15.40
  11  -1  -3  402.26   17.70
   9   1  -2   51.89    8.00
  -9   1   2   56.29    5.80
  -9  -1   2   55.29    3.40
   9  -1  -2   51.99    7.20
  -9  -1   2   52.89    5.70
   7   1  -1 3948.30  104.39
  -7   1   1 3973.30  102.59
   7  -1  -1 3836.32  104.49
  -7  -1   1 3892.51  101.19
  -7  -1   1 3982.70  102.69
   7  -1  -1 3952.20  100.29
   5   1   0 5733.83  149.79
  -5  -1   0 5615.64  147.69
   5  -1   0 5827.42  150.18
  -5  -1   0 5881.71  148.39
   1   1   2 1178.68   29.50
   1   1   2 1088.59   30.70
  -1  -1  -2 1129.59   29.90
   1  -1   2 1173.98   29.90
   1  -1   2 1103.19   30.50
   3  -1  -4 1632.84   44.00
  -3  -1   4 1640.24   42.90
  -5   1   5  226.88    7.90
   5   1  -5  228.18    7.00
   5  -1  -5  223.98    8.70
  -5  -1   5  231.08    7.50
   7   1  -6 3299.67   86.99
  -7   1   6 3337.57   85.79
  -7   1   6 3397.56   87.89
  -7  -1   6 3374.76   88.39
  -7  -1   6 3315.57   86.59
   7  -1  -6 3336.27   88.99
   9   1  -7 1588.54   45.20
  -9   1   7 1659.93   46.10
  -9   1   7 1658.53   42.90
   9  -1  -7 1766.42   47.70
  -9  -1   7 1641.74   46.50
  -9  -1   7 1665.93   44.10
 -11   1   8 1557.24   43.70
  11  -1  -8 1520.75   45.00
 -11  -1   8 1500.55   43.90
 -13   1   9    0.70    1.40
 -13  -1   9    0.90    1.50
  13  -1  -9    2.40    6.10
 -13   2   4  102.29    8.70
 -13  -2   4   85.19    8.90
  13  -2  -4  112.49   13.20
  11   2  -3  711.53   24.60
 -11   2   3  719.53   22.90
 -11  -2   3  720.93   23.20
 -11  -2   3  730.43   21.00
  11  -2  -3  735.73   26.60
  -9   2   2    0.60    0.90
   9   2  -2   -0.60    6.60
  -9  -2   2    3.40    2.20
  -9  -2   2    0.90    1.00
   9  -2  -2    2.20    5.20
  -7   2   1  714.33   20.90
   7   2  -1  732.13   23.40
  -7  -2   1  716.53   20.20
   7  -2  -1  699.73   18.80
  -7  -2   1  719.83   21.00
   7  -2  -1  691.03   23.60
   5   2   0  907.01   26.60
  -5  -2   0  911.71   25.20
   5  -2   0  909.31   24.20
   5  -2   0  917.61   27.50
  -5  -2   0  907.71   25.10
   3   2   1 4453.25  117.49
  -3  -2  -1 4488.45  115.79
  -3  -2  -1 4499.45  116.39
   3  -2   1 4516.45  117.99
   3  -2   1 4594.74  115.99
   1   2   2  300.77   10.40
  -1  -2  -2  305.17   10.40
  -1  -2  -2  308.17    9.40
   1  -2   2  304.77   10.00
   1  -2   2  307.47    9.40
   1   2  -3 4892.61  124.79
  -1  -2   3 4862.51  124.79
  -1  -2   3 4916.51  125.19
   1  -2  -3 4917.41  124.99
   1  -2  -3 4701.33  126.29
  -3   2   4  254.57    7.70
   3  -2  -4  258.97    8.00
  -3  -2   4  265.87    8.70
   3  -2  -4  265.17   10.00
  -5   2   5  226.88    7.60
  -5  -2   5  212.68    7.80
   5  -2  -5  221.98    9.50
  -7   2   6  389.46   12.50
   7   2  -6  375.96   10.90
  -7  -2   6  381.56   12.20
  -7  -2   6  385.06   13.50
   7  -2  -6  388.76   14.80
  -9   2   7 2206.08   58.79
   9  -2  -7 2158.08   61.39
  -9  -2   7 2145.29   57.69
  -9  -2   7 2178.48   59.69
 -11   2   8  192.38   10.20
 -11  -2   8  201.28    8.50
  11  -2  -8  188.58   11.70
 -11  -2   8  182.38   10.20
  13  -2  -9   43.10    9.00
  13  -3  -4    5.50    9.10
  11   3  -3   10.10    7.20
  11  -3  -3    8.40    7.00
 -11  -3   3    5.60    3.90
   9   3  -2  240.38   13.40
   9  -3  -2  254.87   13.80
  -9  -3   2  246.48   10.60
  -9  -3   2  254.17    9.70
   7   3  -1  472.15   16.90
   7  -3  -1  439.06   17.80
   7  -3  -1  445.86   12.90
  -7  -3   1  469.65   14.90
  -7  -3   1  459.55   14.60
   5   3   0  532.65   17.90
  -5  -3   0  553.74   16.40
   5  -3   0  535.05   18.80
  -5  -3   0  538.65   15.80
   5  -3   0  524.75   15.30
   3   3   1 1092.79   31.40
  -3  -3  -1 1069.69   30.20
   3  -3   1 1101.49   32.00
  -3  -3  -1 1079.49   28.90
   3  -3   1 1133.59   29.90
  -1  -3  -2  160.88    6.40
   1  -3   2  163.08    6.50
   1  -3   2  159.48    7.10
  -1  -3  -2  170.78    7.50
  -1  -3   3  885.11   24.80
  -1  -3   3  875.01   24.60
   1  -3  -3  895.11   24.40
   1  -3  -3  862.21   26.20
  -3   3   4   72.89    2.80
  -3  -3   4   69.29    4.50
   3  -3  -4   72.49    6.00
   3  -3  -4   71.79    3.80
  -5   3   5  423.26   12.20
   5  -3  -5  413.26   15.70
   5  -3  -5  398.56   12.20
  -5  -3   5  422.46   13.60
  -7   3   6   65.89    4.70
  -7  -3   6   59.09    5.80
  -7  -3   6   73.39    5.40
   7  -3  -6   67.89    7.00
  -9   3   7  598.04   19.10
   9  -3  -7  642.24   23.20
  -9  -3   7  620.94   19.20
  -9  -3   7  601.14   20.50
 -11   3   8   52.89    7.00
 -11  -3   8   69.59    6.50
 -11  -3   8   49.90    7.30
  11  -3  -8   66.79    9.80
 -13   3   9  178.48   11.20
 -13  -3   9  175.28   12.00
  13  -3  -9  185.88   15.10
 -11  -4   3  697.13   22.10
  11  -4  -3  669.03   27.70
 -11  -4   3  677.63   22.70
   9   4  -2   19.80    8.80
   7   4  -1  230.88   12.00
  -7  -4   1  240.18    9.70
   7  -4  -1  240.28   13.30
  -7  -4   1  238.58   10.00
   5   4   0   86.99    7.50
   5  -4   0   87.49    4.90
  -5  -4   0   86.29    6.10
   5  -4   0   89.09    8.10
  -3  -4  -1  410.36   14.30
   3  -4   1  449.86   16.50
   3  -4   1  452.75   14.10
  -3  -4  -1  447.16   12.50
  -1  -4  -2  117.29    6.20
  -1  -4  -2  124.39    7.70
  -1  -4   3   65.39    5.10
  -1  -4   3   75.69    5.50
   1  -4  -3   76.99    5.00
   1  -4  -3   93.19    7.10
  -3  -4   4  129.89    5.80
   3  -4  -4  127.19    8.60
  -3  -4   4  132.69    7.10
   3  -4  -4  136.59    6.30
  -5  -4   5  421.26   14.50
   5  -4  -5  415.56   17.10
   5  -4  -5  412.16   13.10
  -7  -4   6  112.49    7.40
   7  -4  -6  126.19   10.10
  -7  -4   6  110.99    7.60
  -9   4   7  979.00   27.50
   9  -4  -7  968.70   33.20
  -9  -4   7  931.41   29.30
  -9  -4   7  937.51   28.50
  11  -4  -8    6.80    7.90
 -11  -4   8    6.30    4.70
  -9  -5   2  233.28   12.00
   9  -5  -2  237.08   16.20
   7   5  -1  115.09   10.40
   7  -5  -1  128.29   12.20
  -7  -5   1  119.69    8.40
   5   5   0 1211.38   36.20
   5  -5   0 1195.78   37.60
   5  -5   0 1123.59   33.00
  -5  -5   0 1202.58   34.60
   3   5   1   85.39    8.20
   3  -5   1   97.59    8.90
  -3  -5  -1   79.29    6.10
   3  -5   1   87.59    6.40
  -1  -5  -2  177.18    8.80
  -1  -5  -2  201.38   10.60
   1  -5  -3  659.83   20.70
   1  -5  -3  677.93   23.60
  -1  -5   3  678.13   21.30
   3  -5  -4  764.92   22.80
   3  -5  -4  749.23   26.20
  -3  -5   4  765.32   23.60
   5  -5  -5  151.08    7.50
  -5  -5   5  160.78    8.70
   5  -5  -5  159.38   11.60
  -5  -5   5  152.78    9.00
  -7  -5   6  405.36   15.40
   7  -5  -6  407.86   19.20
  -7  -5   6  399.46   15.70
  -9  -5   7  417.76   16.80
  -9  -5   7  422.96   16.60
   9  -5  -7  409.56   20.80
   5   6   0  316.67   15.80
   5  -6   0  310.67   17.50
  -5  -6   0  314.77   13.90
   5  -6   0  297.37   12.20
   3   6   1   11.40    7.10
   3  -6   1   14.60    7.40
   3  -6   1   18.70    4.80
  -3  -6  -1   19.40    5.50
   1   6   2  204.48   11.90
   1  -6   2  190.58    9.90
  -1  -6  -2  180.78   11.90
  -1  -6  -2  196.18   10.40
   1  -6   2  191.78   12.30
   1  -6  -3  558.14   22.10
   1  -6  -3  578.54   19.30
  -1  -6   3  557.64   19.50
  -3  -6   4    1.10    5.30
   3  -6  -4   -3.50    6.60
   3  -6  -4    8.40    4.20
   5  -6  -5   39.80    5.60
  -5  -6   5   59.09    7.70
   5  -6  -5   36.60    9.30
  14   0  -4  124.29   13.00
 -14   0   4   94.49    9.50
  12   0  -3    6.00    6.10
 -10   0   2  127.29    7.80
  10   0  -2  127.09    9.70
  -8   0   1   -0.50    0.90
   8   0  -1   -6.60    4.90
  -6   0   0  714.73   20.50
   6   0   0  709.23   22.70
   4   0   1   -1.20    4.00
   0   0  -3   -0.50    1.50
   0   0   3    1.70    1.60
   4   0  -5   -1.70    1.50
  -4   0   5   -2.20    1.00
  -6   0   6  731.83   20.10
  -6   0   6  739.23   21.60
   6   0  -6  746.03   21.30
   8   0  -7    0.60    2.50
  -8   0   7   -1.40    1.70
  -8   0   7    0.00    0.80
  10   0  -8  220.48   10.10
 -10   0   8  221.88   10.40
 -12   0   9    0.30    1.20
  12   0  -9    0.90    4.70
 -14   0  10  901.11   29.90
  14  -1  -4   14.80    8.70
  12   1  -3   52.99    8.80
  12  -1  -3   30.90    8.20
 -10   1   2  273.97   11.40
  10   1  -2  281.37   13.30
  10  -1  -2  279.57   13.80
 -10  -1   2  282.47   11.60
   8   1  -1 4518.65  120.79
  -8   1   1 4638.84  118.79
   8  -1  -1 4450.55  120.89
  -8  -1   1 4570.04  118.79
  -8  -1   1 4556.04  117.09
  -6   1   0 3549.84   93.29
   6   1   0 3556.24   95.09
  -6  -1   0 3647.64   93.39
  -6  -1   0 3580.24   92.39
   6  -1   0 3572.74   95.39
   6  -1   0 3573.94   91.79
   4   1   1  523.55   15.80
   4  -1   1  520.85   13.50
  -4  -1  -1  476.75   14.10
  -4  -1  -1  438.76   13.70
   0   1   3 2296.97   62.39
   0   1  -3 2431.76   61.79
   0  -1   3 2360.26   61.59
   0  -1   3 2411.66   61.89
  -2  -1   4    2.40    1.40
  -2  -1   4    1.00    0.80
  -2  -1   4    1.80    1.40
   2  -1  -4    1.40    1.70
  -4   1   5 1400.06   37.60
   4   1  -5 1410.46   36.30
  -4  -1   5 1414.06   37.30
   4  -1  -5 1387.86   38.50
   6   1  -6   57.39    3.20
  -6   1   6   65.09    4.10
   6  -1  -6   59.29    4.90
  -6  -1   6   61.49    3.60
  -6  -1   6   62.29    4.50
  -6  -1   6   62.79    4.40
  -8   1   7  196.08    6.00
   8   1  -7  187.58    7.20
  -8   1   7  156.38    8.00
  -8  -1   7  190.08    6.90
   8  -1  -7  194.08    9.00
  -8  -1   7  179.68    8.60
 -10   1   8 1716.63   47.20
 -10  -1   8 1719.53   45.50
  10  -1  -8 1672.43   48.30
 -10  -1   8 1621.54   47.50
 -12   1   9  146.09    9.50
  12  -1  -9  133.99   10.40
 -12  -1   9  146.69    9.60
 -14   1  10  401.56   17.80
 -14  -1  10  454.75   18.60
  14  -1 -10  448.56   19.50
 -14   2   4   55.99    8.30
  14  -2  -4   69.19   12.50
  12   2  -3  376.46   16.00
 -12   2   3  337.57   13.80
 -12  -2   3  332.87   14.20
  12  -2  -3  327.17   17.80
 -12  -2   3  345.77   13.40
  10   2  -2 1483.25   45.10
 -10   2   2 1562.94   42.90
  10  -2  -2 1534.15   46.70
 -10  -2   2 1526.85   41.30
 -10  -2   2 1534.15   43.20
   8   2  -1    7.80    7.10
   8  -2  -1    7.10    4.80
  -8  -2   1    6.50    2.30
   8  -2  -1    6.60    1.20
   6   2   0  501.95   17.50
  -6  -2   0  513.25   15.10
  -6  -2   0  523.65   15.70
   6  -2   0  518.55   18.10
   6  -2   0  509.55   14.20
   4   2   1 1023.60   29.50
  -4  -2  -1 1028.40   27.60
   4  -2   1 1042.60   27.40
  -4  -2  -1 1005.20   27.90
   4  -2   1 1016.30   29.90
   2   2   2 5133.39  133.99
   2  -2   2 5248.77  132.59
  -2  -2  -2 5075.89  132.69
   2  -2   2 5167.88  133.89
   0  -2   3 2240.28   59.09
   0  -2  -3 2235.58   60.19
   0  -2  -3 2259.97   58.89
   0  -2   3 2278.87   59.09
  -2   2   4  503.15   14.00
   2   2  -4  545.55   14.10
   2  -2  -4  494.75   16.20
  -2  -2   4  506.85   13.80
  -2  -2   4  505.75   15.00
   2  -2  -4  498.55   14.60
  -4   2   5 5116.39  135.19
   4  -2  -5 5358.56  137.79
  -4  -2   5 5319.07  135.89
  -6   2   6  214.88    7.80
   6  -2  -6  206.28    9.80
  -6  -2   6  217.58    8.00
   8   2  -7    2.70    1.80
  -8   2   7    1.10    0.90
   8  -2  -7    0.40    3.70
  -8  -2   7   -2.10    2.70
  -8  -2   7    0.10    0.90
 -10   2   8  297.27   12.10
  10  -2  -8  300.17   14.30
 -10  -2   8  299.27   10.70
 -10  -2   8  301.37   12.70
  12  -2  -9   13.50    6.70
 -12  -2   9   24.50    4.20
 -14   2  10   -2.00    1.60
  14  -2 -10    5.50    8.10
 -14  -2  10    1.90    1.90
  12   3  -3  124.09   11.10
  12  -3  -3   99.09   12.50
 -12  -3   3   81.99    8.70
 -12  -3   3  100.49    7.30
  10   3  -2   -2.70    7.60
  10  -3  -2   -5.40    5.70
 -10  -3   2   -0.50    1.10
 -10  -3   2    2.70    3.40
   8   3  -1  780.72   26.00
   8  -3  -1  763.52   26.80
  -8  -3   1  763.92   22.90
  -8  -3   1  799.02   23.40
   6   3   0  238.48   11.50
  -6  -3   0  225.88    8.70
   6  -3   0  265.37   12.00
   6  -3   0  225.68    7.90
  -6  -3   0  254.47    9.30
   4   3   1 1412.76   39.70
   4  -3   1 1394.16   37.50
   4  -3   1 1380.66   40.30
  -4  -3  -1 1412.86   37.10
   2   3   2   23.50    4.30
  -2  -3  -2   22.20    3.00
   2  -3   2   22.40    3.80
   2  -3   2   22.70    3.00
   0  -3  -3 2238.38   61.49
   0  -3   3 2262.97   60.29
   0  -3   3 2297.57   60.09
   0  -3  -3 2282.57   59.89
  -2  -3   4 2392.16   61.39
   2  -3  -4 2328.17   64.09
   2  -3  -4 2368.56   61.89
  -2  -3   4 2323.87   62.29
  -4   3   5   71.79    3.40
   4  -3  -5   63.69    6.10
   4  -3  -5   63.79    3.70
  -4  -3   5   67.09    5.10
  -6   3   6    2.20    0.70
   6  -3  -6    3.70    4.10
  -6  -3   6    7.50    3.50
  -8   3   7  512.15   16.50
  -8  -3   7  523.25   16.90
  -8  -3   7  545.65   18.20
   8  -3  -7  554.94   20.40
  10  -3  -8   51.59    8.30
 -10  -3   8   48.30    6.10
 -12   3   9   76.79    8.50
 -12  -3   9  101.09    7.80
  12  -3  -9   97.09   11.80
 -12  -3   9   86.09    9.20
  10   4  -2 1116.89   36.40
  10  -4  -2 1110.99   38.80
 -10  -4   2 1146.69   33.20
 -10  -4   2 1152.68   33.40
   8   4  -1   14.00    7.30
  -8  -4   1   25.30    4.60
   8  -4  -1   27.00    7.50
   6   4   0  571.34   20.60
   6  -4   0  620.14   22.30
  -6  -4   0  598.64   19.00
   4   4   1  167.98    9.80
   4  -4   1  186.88    7.50
  -4  -4  -1  179.48    8.10
   4  -4   1  175.88   10.10
   2   4   2  109.89    7.80
   2  -4   2  115.99    7.30
   2  -4   2  119.99    6.40
  -2  -4  -2  110.19    6.20
   0  -4  -3  114.99    6.00
   0  -4   3  116.79    6.40
   0  -4  -3  124.09    7.90
   0  -4   3  119.99    6.50
   2  -4  -4 2636.84   70.29
   2  -4  -4 2648.03   73.19
  -2  -4   4 2641.54   70.99
  -2  -4   4 2719.33   70.19
   4  -4  -5  495.65   18.90
   4  -4  -5  506.05   15.40
  -4  -4   5  500.75   16.50
  -6  -4   6 2540.05   68.59
   6  -4  -6 2567.74   72.29
   6  -4  -6 2607.84   67.19
  -6  -4   6 2486.35   68.89
  -8  -4   7  614.84   20.10
   8  -4  -7  631.04   24.10
  -8  -4   7  609.24   20.80
 -10  -4   8   38.60    6.00
  10  -4  -8   46.30    9.70
   8   5  -1   -0.80    7.80
   8  -5  -1   17.20    8.20
  -8  -5   1   23.80    5.50
   6   5   0  111.89   10.40
   6  -5   0  120.49   11.40
  -6  -5   0  125.99    8.20
   6  -5   0  117.49    6.40
   4   5   1  140.29   10.10
   4  -5   1  174.98   11.00
   4  -5   1  169.58    8.10
  -4  -5  -1  148.59    8.50
   2   5   2   37.30    6.70
  -2  -5  -2   36.80    5.20
   2  -5   2   33.50    6.60
   2  -5   2   35.50    5.10
   0  -5   3  273.47   11.80
   0  -5   3  263.27   11.00
   0  -5  -3  272.37   10.80
   0  -5  -3  268.67   12.90
  -2  -5   4   58.59    6.30
   2  -5  -4   52.29    7.90
   2  -5  -4   61.29    5.60
  -4  -5   5   44.30    6.10
   4  -5  -5   47.80    7.90
   4  -5  -5   40.70    4.90
  -6  -5   6  129.49    8.60
   6  -5  -6  118.29   11.10
   6  -5  -6  120.79    6.70
  -6  -5   6  117.39    8.50
   8  -5  -7   98.29   11.60
  -8  -5   7  105.09    8.60
  -8  -5   7   88.39    8.80
   6   6   0   10.20   10.60
  -6  -6   0   19.70    6.00
   6  -6   0   12.40    8.80
   4   6   1  617.14   23.30
   4  -6   1  592.04   20.00
  -4  -6  -1  638.14   21.30
   4  -6   1  602.24   24.10
   2   6   2   13.20    6.90
  -2  -6  -2    0.70    4.70
   2  -6   2    5.70    4.50
   2  -6   2    5.40    7.00
   0  -6   3   21.50    5.50
   0  -6  -3   39.20    6.10
   0  -6   3   28.10    6.70
   0  -6  -3   23.00    7.30
  -2  -6   4   24.30    5.70
   2  -6  -4   20.90    8.20
   2  -6  -4   26.20    5.30
  -4  -6   5   -1.30    5.30
   4  -6  -5    5.80    4.60
   4  -6  -5    4.80    7.60
  -6  -6   6   72.19    9.00
   6  -6  -6   75.99    7.50
   6  -6  -6   81.99   12.10
 -13   0   3  160.98   10.10
  11   0  -2    5.20    6.00
   9   0  -1   16.80    6.40
  -7   0   0    0.10    0.70
   7   0   0   -5.40    5.40
   5   0   1  979.50   28.90
  -5   0  -1  967.20   26.80
   3   0   2   -0.10    3.10
  -1   0   4   -0.30    1.40
  -3   0   5  694.73   19.30
   3   0  -5  723.93   19.70
  -5   0   6   -0.60    1.20
   5   0  -6    0.60    1.70
  -7   0   7  286.57    9.00
  -7   0   7  287.57   10.80
   7   0  -7  285.87   10.20
   9   0  -8    0.40    2.90
  -9   0   8    0.20    0.90
  -9   0   8    0.60    2.00
  11   0  -9  314.97   13.50
 -11   0   9  335.07   13.70
  13   0 -10    5.90    6.80
 -13   0  10    1.20    1.50
 -13   1   3  127.99    9.40
  13  -1  -3  157.88   14.40
 -13  -1   3  129.59    9.90
  11   1  -2  381.36   16.40
 -11   1   2  377.56   14.70
  11  -1  -2  389.46   17.40
 -11  -1   2  390.86   14.70
  -9   1   1   78.39    6.20
   9   1  -1   61.09   10.00
  -9  -1   1   68.69    6.20
   9  -1  -1   60.89    7.70
   7   1   0  471.95   18.10
  -7  -1   0  485.25   15.20
  -7  -1   0  466.85   13.80
   7  -1   0  475.45   13.10
   7  -1   0  476.45   17.40
   5   1   1 2005.80   54.49
  -5  -1  -1 2012.60   52.69
  -5  -1  -1 1981.80   52.09
   5  -1   1 1944.41   54.59
   5  -1   1 2007.20   51.69
  -3  -1  -2  859.91   24.80
   3  -1   2  907.51   24.70
   3  -1   2  997.00   26.80
   1   1   3 4390.86  115.69
   1  -1   3 4371.96  114.59
   1  -1   3 4622.94  115.59
   1   1  -4  605.04   16.90
   1  -1  -4  626.94   18.20
  -1  -1   4  609.44   17.30
  -1  -1   4  652.03   17.30
  -3  -1   5 2492.45   63.19
   3  -1  -5 2395.56   64.09
  -3  -1   5 2375.46   62.09
   5   1  -6 2044.00   51.69
  -5   1   6 1959.70   52.99
  -5  -1   6 1992.50   52.49
   5  -1  -6 1984.90   53.99
   7   1  -7 1058.99   28.80
  -7   1   7 1058.49   30.20
  -7   1   7 1085.09   28.40
  -7  -1   7 1048.60   30.70
  -7  -1   7 1064.89   29.00
   7  -1  -7 1061.39   31.00
   9   1  -8 1294.17   35.70
  -9   1   8 1347.57   34.30
  -9   1   8 1284.67   37.00
  -9  -1   8 1282.67   35.10
   9  -1  -8 1298.57   38.10
  -9  -1   8 1284.57   37.50
 -11   1   9    7.10    1.50
 -11  -1   9    7.00    1.50
 -13   1  10  142.99   10.70
  13  -1 -10  152.98   11.20
 -13  -1  10  142.89   10.60
  13  -2  -3    2.20    8.50
  11   2  -2   11.20    6.80
 -11  -2   2    3.60    3.40
  11  -2  -2    6.80    6.40
   9   2  -1   39.70    8.30
   9  -2  -1   38.80    7.30
  -9  -2   1   32.20    4.00
   7   2   0  160.98   11.20
   7  -2   0  155.98    5.30
   7  -2   0  149.09    9.10
  -7  -2   0  159.68    6.30
  -7  -2   0  153.08    7.30
   5   2   1 8736.13  224.98
   5  -2   1 8836.42  222.38
   5  -2   1 8551.25  225.58
  -5  -2  -1 8651.73  223.08
  -5  -2  -1 8721.33  222.98
   3  -2   2  428.66   13.90
  -3  -2  -2  372.56   12.10
   3  -2   2  421.56   12.10
   1   2   3 2982.70   76.29
   1   2   3 3048.99   78.89
  -1  -2  -3 2866.01   77.19
   1  -2   3 2966.50   77.89
   1  -2   3 2992.60   77.29
   1   2  -4 1728.93   43.60
   1  -2  -4 1624.04   43.60
  -1  -2   4 1604.34   43.30
  -1  -2   4 1652.53   43.90
   1  -2  -4 1641.14   45.20
  -3   2   5 3294.07   84.49
  -3  -2   5 3297.47   85.39
   3  -2  -5 3233.48   86.79
  -5   2   6   23.80    2.90
   5  -2  -6   28.60    4.20
  -5  -2   6   34.00    3.50
  -7   2   7    0.50    0.60
   7  -2  -7    2.20    3.80
  -7  -2   7    0.60    2.70
  -7  -2   7    0.20    0.80
  -9   2   8  147.79    7.90
   9  -2  -8  142.99    9.40
  -9  -2   8  138.49    8.50
  -9  -2   8  148.69    7.30
 -11   2   9 1257.07   36.20
 -11  -2   9 1202.48   37.00
  11  -2  -9 1217.98   38.60
 -11  -2   9 1247.18   34.30
 -13   2  10    8.40    1.80
 -13  -2  10    7.10    1.90
  13  -2 -10   25.80    7.90
  13  -3  -3  311.87   19.20
 -13  -3   3  311.87   14.40
  11   3  -2   10.40    8.10
  11  -3  -2    0.90    6.70
 -11  -3   2    4.40    4.00
   9   3  -1    9.80    7.80
   9  -3  -1    8.00    5.50
  -9  -3   1   11.50    3.60
   7   3   0  431.56   17.10
  -7  -3   0  449.66   14.50
  -7  -3   0  463.25   14.50
   7  -3   0  449.66   17.90
   7  -3   0  436.66   13.00
   5   3   1 1881.21   51.29
  -5  -3  -1 1781.02   49.10
   5  -3   1 1835.22   48.30
   5  -3   1 1766.32   51.69
  -5  -3  -1 1857.21   48.30
   3   3   2  441.76   15.00
  -3  -3  -2  359.66   13.10
   3  -3   2  441.66   13.10
   3  -3   2  453.25   15.10
   1   3   3 1068.29   31.50
  -1  -3  -3 1096.59   30.00
  -1  -3  -3 1088.69   31.50
   1  -3   3 1089.89   30.80
   1  -3   3 1084.59   30.00
  -1  -3   4 2789.82   73.79
   1  -3  -4 2852.01   76.09
  -1  -3   4 2845.22   74.29
   1  -3  -4 2798.82   73.89
  -3   3   5  493.05   13.10
   3  -3  -5  483.15   14.40
   3  -3  -5  491.05   17.00
  -3  -3   5  458.95   15.10
  -5   3   6  201.08    7.10
  -5  -3   6  196.98    8.50
   5  -3  -6  204.78   10.30
  -7   3   7  126.99    6.20
  -7  -3   7  123.79    7.50
  -7  -3   7  128.29    7.10
   7  -3  -7  128.89    9.10
  -9   3   8  826.52   25.10
  -9  -3   8  848.82   26.80
   9  -3  -8  855.51   29.00
  -9  -3   8  853.91   25.20
 -11   3   9  109.29    8.40
 -11  -3   9  119.69    7.90
 -11  -3   9  128.19    9.50
  11  -3  -9  120.49   11.40
  13  -3 -10   75.29   11.80
 -13  -3  10   68.19   10.00
  11   4  -2  159.88   15.70
  11  -4  -2  165.88   14.60
 -11  -4   2  173.18    9.90
 -11  -4   2  168.38   10.40
   9   4  -1   67.19   10.70
  -9  -4   1   63.79    6.90
  -9  -4   1   53.39    6.50
   9  -4  -1   70.39   10.40
   7   4   0   -2.90    6.00
   7  -4   0    0.40    6.00
  -7  -4   0   -0.90    0.90
  -7  -4   0   -1.60    3.40
   5   4   1  113.89    8.40
  -5  -4  -1  112.49    6.70
   5  -4   1  115.79    6.20
   5  -4   1  116.49    9.00
   3   4   2   49.60    6.40
   3  -4   2   46.20    4.70
   3  -4   2   55.69    6.40
  -3  -4  -2   44.70    4.70
  -1  -4  -3  868.91   25.30
  -1  -4  -3  881.31   27.20
   1  -4   3  866.91   26.30
   1  -4   3  874.71   25.40
   1  -4  -4    1.20    2.50
  -1  -4   4    1.50    3.20
   1  -4  -4   -0.50    4.00
  -1  -4   4    0.60    2.80
   3  -4  -5    7.30    2.80
   3  -4  -5    2.70    4.50
  -3  -4   5    6.60    3.60
  -3  -4   5    5.30    2.30
   5  -4  -6  134.79    6.30
  -5  -4   6  136.99    7.70
   5  -4  -6  128.99    9.60
  -7  -4   7   55.59    6.20
   7  -4  -7   50.19    7.30
  -7  -4   7   50.69    6.70
  -9  -4   8    2.00    4.40
  -9  -4   8    1.60    1.30
   9  -4  -8    5.90    6.50
  11  -4  -9  339.57   19.10
 -11  -4   9  361.16   14.40
 -11  -4   9  362.46   16.40
  -9  -5   1   13.10    5.60
   9  -5  -1   11.50    8.80
   7   5   0   61.79   10.10
   7  -5   0   68.89   10.60
  -7  -5   0   78.89    7.60
   5   5   1  301.17   14.50
   5  -5   1  302.17   15.30
  -5  -5  -1  277.57   12.00
   5  -5   1  291.47   11.10
   3   5   2   78.09    8.20
   3  -5   2   82.99    8.60
   3  -5   2   71.29    6.00
   1   5   3  330.37   14.20
  -1  -5  -3  323.27   12.30
   1  -5   3  316.77   13.80
   1  -5   3  308.77   12.20
   1  -5  -4   21.50    4.20
  -1  -5   4   18.30    4.30
   1  -5  -4   21.80    6.40
   3  -5  -5  102.09    6.50
  -3  -5   5   96.49    6.90
   3  -5  -5  100.29    9.40
  -5  -5   6   29.30    5.70
   5  -5  -6   34.50    7.50
   5  -5  -6   29.40    4.60
  -7  -5   7   -0.30    4.70
   7  -5  -7   -2.00    6.40
  -7  -5   7   -1.10    1.20
   9  -5  -8   34.00    9.70
  -9  -5   8   32.00    6.70
   5   6   1  292.77   16.30
   5  -6   1  294.87   12.30
  -5  -6  -1  305.57   13.80
   5  -6   1  323.47   17.10
   3   6   2   19.20    7.50
   3  -6   2   24.30    8.20
   3  -6   2   25.10    5.20
  -3  -6  -2    9.10    4.90
   1   6   3  111.79   10.50
   1  -6   3  110.69    8.50
   1  -6   3  116.39   10.10
  -1  -6  -3  113.99    8.60
   1  -6  -4   12.30    7.30
  -1  -6   4    1.70    5.00
   1  -6  -4    6.10    4.50
  -3  -6   5   41.00    6.90
   3  -6  -5   35.50    5.60
   3  -6  -5   44.00    9.70
   5  -6  -6   61.49   10.90
  -5  -6   6   56.69    7.50
   5  -6  -6   53.69    7.00
  14   0  -3   31.10   10.30
  12   0  -2  520.85   21.00
 -12   0   2  494.25   18.10
  10   0  -1    2.80    5.20
  -8   0   0   64.79    5.70
   8   0   0   46.00    7.50
  -6   0  -1   -1.20    0.60
   6   0   1   -4.60    5.00
   4   0   2  167.28    8.40
   2   0   3   -0.40    2.90
  -2   0   5   -4.30    1.50
  -4   0   6 3484.35   91.29
   4   0  -6 3580.24   91.79
  -6   0   7   -0.20    1.60
   6   0  -7    2.60    2.10
  -8   0   8  869.11   26.10
   8   0  -8  858.11   25.30
  -8   0   8  871.51   23.80
 -10   0   9   -1.90    0.90
  12   0 -10   38.40    6.60
 -14   0  11   -2.20    1.50
  14  -1  -3   19.40   10.20
  12   1  -2  137.39   11.00
 -12   1   2   96.29    8.30
 -12  -1   2   95.69    8.20
  12  -1  -2  118.19   11.60
 -10   1   1  705.13   21.30
  10   1  -1  637.04   23.50
 -10  -1   1  673.23   21.30
  10  -1  -1  650.53   23.70
   8   1   0   26.00    8.30
   8  -1   0   20.40    2.20
   8  -1   0   21.30    6.50
   6   1   1 4288.57  112.79
   6  -1   1 4151.38  112.69
   6  -1   1 4216.08  109.19
  -6  -1  -1 4345.17  110.49
   4   1   2  641.14   20.30
   4  -1   2  657.03   20.60
   4  -1   2  666.43   18.00
   2   1   3 4776.12  125.09
   2  -1   3 4742.53  125.09
   2  -1   3 4909.51  123.69
   0   1   4  605.64   17.80
   0  -1   4  563.64   16.70
   0  -1   4  610.64   17.40
  -4  -1   6  168.28    6.20
   4  -1  -6  163.98    7.10
  -4  -1   6  164.38    5.10
  -6   1   7 1041.70   29.80
   6   1  -7 1063.79   28.30
  -6  -1   7 1060.89   29.00
   6  -1  -7 1066.09   30.70
  -6  -1   7 1069.39   28.40
  -8   1   8   70.69    3.70
  -8   1   8   70.89    5.70
   8   1  -8   71.89    4.20
  -8  -1   8   63.49    5.70
   8  -1  -8   73.59    6.30
  -8  -1   8   71.59    4.50
 -10   1   9  124.09    7.90
  10  -1  -9  116.29    8.20
 -10  -1   9  121.39    8.30
 -12   1  10  377.26   15.60
  12  -1 -10  383.66   16.50
 -12  -1  10  375.66   15.90
 -14   1  11   -0.30    1.60
 -14  -1  11    1.60    1.70
  14  -1 -11    5.20    7.40
  12   2  -2   22.40    7.40
  12  -2  -2    7.50    8.10
  10   2  -1  604.14   23.50
  10  -2  -1  638.04   23.70
 -10  -2   1  635.54   20.40
 -10  -2   1  614.94   18.60
   8   2   0 3542.95   96.29
  -8  -2   0 3581.74   92.69
   8  -2   0 3545.35   96.79
  -8  -2   0 3532.35   93.49
   6   2   1    2.90    5.30
   6  -2   1   -0.60    1.70
  -6  -2  -1    0.70    0.70
   6  -2   1   -1.10    3.90
  -6  -2  -1    0.80    1.90
   4   2   2  209.58    9.40
   4  -2   2  196.88    9.10
   4  -2   2  219.58    7.20
  -4  -2  -2  211.18    7.40
   2   2   3 2150.78   58.29
   2  -2   3 2283.77   56.69
   2  -2   3 2034.00   57.49
  -2  -2  -3 2148.09   56.69
   0  -2  -4  721.13   21.50
   0  -2   4  721.03   20.30
   0  -2   4  706.03   20.30
   0  -2  -4  721.63   20.10
   2  -2  -5   54.49    4.50
  -2  -2   5   62.59    2.70
  -2  -2   5   61.59    3.90
  -4   2   6 3296.47   86.99
   4  -2  -6 3355.26   89.39
  -4  -2   6 3407.56   87.59
  -6   2   7  502.25   14.70
  -6  -2   7  510.15   14.90
   6  -2  -7  406.66   16.30
  -8   2   8  251.67   10.00
  -8  -2   8  237.58   10.70
  -8  -2   8  256.47    9.70
   8  -2  -8  251.07   11.80
 -10   2   9  126.89    7.90
  10  -2  -9  125.19    9.40
 -10  -2   9  113.69    8.50
 -10  -2   9  121.99    6.90
 -12   2  10  127.69    9.70
  12  -2 -10  139.09   11.30
 -12  -2  10  144.89    7.60
 -12  -2  10  129.79   10.10
  12   3  -2  297.37   16.70
 -12  -3   2  287.67   11.50
 -12  -3   2  278.87   13.00
  12  -3  -2  283.47   17.60
  10   3  -1  490.85   21.40
 -10  -3   1  488.35   17.10
  10  -3  -1  483.35   21.10
 -10  -3   1  501.85   16.20
   8   3   0  498.05   19.70
  -8  -3   0  475.35   15.80
   8  -3   0  480.35   19.50
  -8  -3   0  491.25   15.70
   6   3   1   95.19    8.60
   6  -3   1  101.49    4.80
  -6  -3  -1   86.39    5.40
   6  -3   1  109.09    8.40
  -6  -3  -1   86.99    5.50
   4   3   2  765.22   23.80
   4  -3   2  739.53   21.20
   4  -3   2  730.43   23.80
  -4  -3  -2  743.33   21.70
   2   3   3  447.56   15.20
   2  -3   3  441.66   13.30
  -2  -3  -3  355.26   13.00
   2  -3   3  429.26   14.40
   0  -3   4  944.01   26.80
   0  -3  -4  951.80   26.60
   0  -3  -4  967.20   28.60
   0  -3   4  945.71   26.90
   2  -3  -5   12.60    2.50
  -2  -3   5   13.40    2.20
   2  -3  -5   12.10    4.00
  -2  -3   5    9.90    2.80
  -4   3   6 4018.10  102.59
  -4  -3   6 3975.80  104.29
   4  -3  -6 3967.30  106.59
  -6   3   7   70.79    4.50
  -6  -3   7   68.39    5.70
   6  -3  -7   67.89    7.00
  -8   3   8  129.99    7.30
  -8  -3   8  119.29    8.20
   8  -3  -8  127.19    9.60
  -8  -3   8  126.89    7.60
 -10   3   9  267.97   11.50
 -10  -3   9  270.47   12.90
  10  -3  -9  263.67   14.50
 -10  -3   9  272.17   11.00
 -12   3  10   99.59    9.20
  12  -3 -10  113.29   12.40
 -12  -3  10  110.19    8.10
 -12  -3  10   83.59    9.90
  10   4  -1   26.00   10.80
  10  -4  -1   37.50    9.90
 -10  -4   1   29.70    5.80
   8   4   0  929.91   31.10
  -8  -4   0  936.11   28.00
  -8  -4   0  943.31   27.20
   8  -4   0  926.01   32.20
   6   4   1  218.98   12.20
  -6  -4  -1  222.78    9.80
   6  -4   1  244.08    8.90
   6  -4   1  215.88   12.70
   4   4   2  657.33   22.10
   4  -4   2  647.84   19.30
  -4  -4  -2  598.84   19.70
   4  -4   2  656.03   22.20
   2   4   3  359.76   14.30
   2  -4   3  344.17   12.20
   2  -4   3  356.76   13.90
  -2  -4  -3  348.57   12.30
   0  -4  -4   67.99    6.60
   0  -4   4   65.49    5.30
   0  -4   4   65.19    5.50
   0  -4  -4   70.19    5.00
   2  -4  -5   27.90    3.80
  -2  -4   5   23.70    4.30
  -2  -4   5   22.30    3.60
   2  -4  -5   22.90    5.20
   4  -4  -6  156.98    9.80
  -4  -4   6  137.99    7.60
   4  -4  -6  146.99    6.70
  -6  -4   7   71.39    6.40
   6  -4  -7   69.29    8.40
  -8  -4   8   17.90    4.90
   8  -4  -8   20.40    7.00
  10  -4  -9   99.49   11.60
 -10  -4   9  103.89    9.90
 -10  -4   9  105.59    8.30
   8   5   0  -15.90    7.90
  -8  -5   0   -1.10    4.90
   8  -5   0    3.00    8.00
   6   5   1    6.00    7.10
  -6  -5  -1    4.80    4.70
   6  -5   1    4.90    7.20
   6  -5   1    6.10    3.80
   4   5   2  270.97   14.00
  -4  -5  -2  268.77   11.50
   4  -5   2  266.17   13.60
   4  -5   2  263.17   10.90
   2   5   3  988.00   31.30
  -2  -5  -3  967.10   28.80
   2  -5   3  954.20   30.30
   2  -5   3  965.20   28.50
   0  -5  -4  800.62   24.20
   0  -5  -4  802.12   26.80
   0  -5   4  788.32   24.50
   2  -5  -5    0.10    3.30
  -2  -5   5    3.70    4.00
   2  -5  -5    1.90    5.70
  -4  -5   6  568.54   19.40
   4  -5  -6  577.64   22.50
   4  -5  -6  589.54   18.40
  -6  -5   7    1.70    1.30
  -6  -5   7    6.70    4.90
   6  -5  -7    2.80    6.60
  -8  -5   8    4.60    5.60
   8  -5  -8   12.20    8.00
  -8  -5   8    1.50    1.50
   6   6   1   -7.10    8.80
   6  -6   1   -1.80    8.60
  -6  -6  -1  -10.00    5.40
   4   6   2   51.79    9.90
   4  -6   2   63.39   10.20
  -4  -6  -2   69.09    7.90
   4  -6   2   66.09    7.30
   2   6   3  306.87   15.90
   2  -6   3  305.27   15.30
   2  -6   3  299.37   13.00
  -2  -6  -3  319.07   13.50
   0   6   4  116.69   10.20
   0  -6   4  105.49    8.60
   0  -6  -4  121.79    8.60
   0  -6  -4  116.49   11.20
   2  -6  -5   28.00    8.30
  -2  -6   5   44.10    7.00
   2  -6  -5   31.90    5.90
   4  -6  -6  106.19    7.90
   4  -6  -6   94.89   12.00
  -4  -6   6   92.49    9.10
 -11   0   1 1359.46   38.50
  11   0  -1 1292.17   41.20
   9   0   0    1.60    5.90
  -9   0   0    0.60    1.00
  -7   0  -1 6222.28  160.08
   7   0   1 6152.08  162.68
   5   0   2    0.80    5.30
   3   0   3   11.20    4.20
   1   0   4    0.30    2.50
   3   0  -6    0.20    1.60
  -5   0   7   88.19    4.10
   5   0  -7   86.19    4.50
  -7   0   8   -1.30    1.80
  -7   0   8   -0.10    0.80
   7   0  -8    1.00    2.20
   9   0  -9  159.68    7.90
  -9   0   9  171.78    6.70
  -9   0   9  176.48    9.00
  11   0 -10   -1.10    4.60
 -11   0  10   -0.70    1.10
 -13   0  11  417.96   17.60
 -13   1   2  102.19    8.60
 -13  -1   2   92.39    8.80
  13  -1  -2  139.89   14.70
  11   1  -1   33.30    7.70
  11  -1  -1   33.20    7.50
   9   1   0  278.57   14.70
   9  -1   0  272.27   14.00
  -9  -1   0  287.47   11.20
   7   1   1  886.01   28.90
   7  -1   1  881.21   24.00
   7  -1   1  848.52   28.20
  -7  -1  -1  953.40   25.80
   5  -1   2  284.07   12.00
   5  -1   2  281.17    8.70
   3   1   3   23.10    4.40
   3  -1   3   28.50    5.40
   3  -1   3   20.10    2.40
   1   1   4 2058.39   55.19
   1  -1   4 2013.90   53.89
   1  -1   4 2092.79   55.09
  -1   1   5 1140.09   32.20
  -1  -1   5 1164.58   31.20
  -1  -1   5 1158.38   31.20
   3  -1  -6  291.07   10.20
  -3  -1   6  284.17    8.60
  -3  -1   6  296.17    9.40
  -3  -1   6  269.57    8.40
  -5  -1   7  826.72   22.30
  -5  -1   7  840.92   23.40
  -5  -1   7  835.82   22.40
   5  -1  -7  840.82   24.70
   7   1  -8 2995.90   78.09
  -7   1   8 2956.70   78.09
  -7   1   8 3045.70   79.89
   7  -1  -8 2995.50   80.69
  -7  -1   8 3050.49   78.79
  -9   1   9  123.19    5.30
   9   1  -9  117.49    8.40
  -9   1   9  117.39    7.50
  -9  -1   9  114.59    7.80
  -9  -1   9  121.29    5.90
   9  -1  -9  124.19    7.90
 -11   1  10  189.88   10.60
  11  -1 -10  197.28   11.00
 -11  -1  10  182.68    8.20
 -11  -1  10  190.38   10.60
 -13   1  11  105.19    9.70
 -13  -1  11  102.29    9.90
  13  -1 -11  103.89   10.40
  13  -2  -2   37.00   10.30
  11   2  -1  645.74   25.10
 -11  -2   1  660.83   21.50
  11  -2  -1  649.34   25.10
   9   2   0    8.90    7.90
  -9  -2   0   11.70    3.30
   9  -2   0   11.10    6.20
   7   2   1 2398.76   63.99
   7  -2   1 2253.97   63.79
  -7  -2  -1 1929.41   60.29
   7  -2   1 2409.86   59.39
  -7  -2  -1 2390.76   60.39
   5   2   2   11.80    5.20
   5  -2   2   21.00    4.90
  -5  -2  -2    9.60    2.30
   3   2   3   45.80    5.00
   3  -2   3   36.40    4.80
   3  -2   3   45.00    3.30
  -3  -2  -3   45.30    3.30
   1  -2   4   25.50    3.60
  -1  -2   5   28.50    2.60
   1  -2  -5   30.30    4.00
  -1  -2   5   33.40    3.50
  -3  -2   6  230.88    8.20
   3  -2  -6  221.18    9.40
  -5   2   7  952.30   26.10
  -5  -2   7  906.01   26.30
   5  -2  -7  931.61   28.20
  -7   2   8  203.58    8.30
  -7  -2   8  199.38    8.50
   7  -2  -8  193.38   10.00
  -9  -2   9   15.40    3.70
   9  -2  -9   13.90    5.20
 -11   2  10  106.49    8.50
 -11  -2  10  109.89    9.10
 -11  -2  10  110.29    7.10
  11  -2 -10  104.99   10.00
 -13   2  11    0.50    1.60
 -13  -2  11   -0.60    1.60
  13  -2 -11    3.90    7.60
  11   3  -1  251.77   16.40
  11  -3  -1  264.07   16.20
 -11  -3   1  267.77   10.90
 -11  -3   1  257.67   12.00
   9   3   0   -2.20    8.30
   9  -3   0    6.30    6.30
  -9  -3   0    0.20    1.10
  -9  -3   0    1.70    3.60
   7   3   1  454.95   18.00
   7  -3   1  471.35   18.50
  -7  -3  -1  390.56   14.20
  -7  -3  -1  471.85   14.70
   5   3   2 1728.83   49.99
   5  -3   2 1771.72   50.49
   5  -3   2 1780.22   46.90
  -5  -3  -2 1742.73   47.60
   3   3   3  193.98    9.80
   3  -3   3  189.18    9.00
   3  -3   3  192.18    7.40
  -3  -3  -3  189.08    7.80
   1  -3   4  565.54   17.70
  -1  -3  -4  588.84   17.10
   1  -3   4  539.65   17.00
   1  -3  -5    4.50    3.50
  -1  -3   5    7.10    2.80
   1  -3  -5    4.90    2.40
  -1  -3   5   10.40    2.40
  -3   3   6  646.64   17.50
   3  -3  -6  654.43   21.50
  -3  -3   6  629.64   19.40
  -5   3   7   56.49    3.80
   5  -3  -7   57.89    6.50
  -5  -3   7   56.79    5.20
  -7   3   8   90.59    6.10
  -7  -3   8   87.59    6.30
   7  -3  -8   89.09    8.20
  -9   3   9  146.29    8.10
  -9  -3   9  143.99    8.10
   9  -3  -9  146.29   10.70
  -9  -3   9  144.59    9.20
  11  -3 -10   69.19   10.00
 -11  -3  10   59.19    8.70
 -11  -3  10   55.19    7.00
  11   4  -1   32.90   12.10
 -11  -4   1   53.69    6.70
  11  -4  -1   51.79   11.00
   9   4   0  141.09   13.20
   9  -4   0  174.58   13.30
  -9  -4   0  161.98    8.60
  -9  -4   0  156.48    8.80
   7   4   1  572.84   22.10
   7  -4   1  599.74   18.50
   7  -4   1  579.84   22.70
  -7  -4  -1  597.84   17.80
  -7  -4  -1  583.14   19.10
   5   4   2  187.18   10.90
  -5  -4  -2  182.78    8.70
   5  -4   2  184.88   11.10
   5  -4   2  181.38    8.00
   3   4   3  218.78   11.40
   3  -4   3  229.88   11.30
   3  -4   3  224.58    9.10
  -3  -4  -3  218.38    9.10
   1   4   4   29.60    5.70
  -1  -4  -4   32.10    4.30
   1  -4   4   34.10    4.50
   1  -4   4   28.50    4.70
   1  -4  -5  166.48    7.50
  -1  -4   5  156.48    7.30
   1  -4  -5  167.88    9.70
  -1  -4   5  169.58    8.20
   3  -4  -6  519.05   19.30
  -3  -4   6  524.15   17.20
   3  -4  -6  514.15   16.20
  -5  -4   7  877.31   26.30
   5  -4  -7  862.31   29.00
  -7  -4   8  156.38    8.70
   7  -4  -8  149.99   11.20
  -7  -4   8  162.08    9.20
  -9  -4   9    6.50    1.60
   9  -4  -9   18.50    7.60
  -9  -4   9   10.70    5.10
  11  -4 -10   22.80    9.10
 -11  -4  10   14.10    5.90
   9   5   0  399.66   21.30
   9  -5   0  411.86   21.20
  -9  -5   0  446.06   17.00
   7   5   1  208.08   14.30
  -7  -5  -1  234.98   11.40
   7  -5   1  242.78   15.10
   5   5   2    7.80    6.60
   5  -5   2   11.10    4.10
  -5  -5  -2    9.70    4.50
   5  -5   2    9.60    6.60
   3   5   3  243.18   13.30
   3  -5   3  240.68   12.70
   3  -5   3  248.18   10.50
  -3  -5  -3  248.78   10.90
   1   5   4  810.52   27.60
   1  -5   4  806.22   25.20
   1  -5   4  839.62   26.40
  -1  -5  -4  839.02   25.30
   1  -5  -5  258.27   13.50
  -1  -5   5  260.47   11.30
   1  -5  -5  254.07   10.60
   3  -5  -6   91.79    9.80
  -3  -5   6   93.29    7.40
   3  -5  -6   90.79    6.80
  -5  -5   7   94.79    7.90
   5  -5  -7  102.59   10.50
   5  -5  -7   96.79    6.80
  -7  -5   8   57.99    7.40
   7  -5  -8   70.29   10.50
  -7  -5   8   67.59    8.30
   9  -5  -9   38.10   10.20
  -9  -5   9   48.00    7.30
   5   6   2    0.20    8.10
   5  -6   2    3.60    8.30
  -5  -6  -2   19.80    6.30
   5  -6   2    7.10    4.80
   3   6   3  129.39   12.60
   3  -6   3  153.18    9.70
  -3  -6  -3  159.48   10.10
   3  -6   3  152.18   12.40
   1   6   4   80.79   10.20
  -1  -6  -4   86.79    8.20
   1  -6   4   53.99    7.10
   1  -6  -5    8.40    5.20
   1  -6  -5   20.80    7.40
  -1  -6   5   20.80    5.80
   3  -6  -6    9.20    4.70
   3  -6  -6    4.80    7.80
  -3  -6   6   10.70    5.80
   5  -6  -7  129.89   13.40
   5  -6  -7  140.89    9.30
  -5  -6   7  140.09   10.40
  12   0  -1   14.80    7.30
  10   0   0 1423.26   44.30
 -10   0   0 1515.75   41.80
   8   0   1    1.50    7.00
   6   0   2   52.89    8.10
   4   0   3    5.30    4.90
   2   0   4  102.59    6.20
   0   0   5   -2.20    2.30
  -2   0   6 3774.82   98.09
   4   0  -7    0.20    1.90
  -4   0   7    0.30    1.50
   6   0  -8  656.83   19.20
  -6   0   8  636.24   18.40
  -8   0   9   -0.20    0.90
  -8   0   9    2.50    2.30
   8   0  -9    0.00    2.50
 -10   0  10 7993.10  208.18
 -12   0  11   -2.20    1.30
 -14   0  12  141.49   11.70
  14  -1  -2   84.79   14.00
  12   1  -1  343.07   16.30
 -12  -1   1  303.67   13.50
  12  -1  -1  319.87   16.90
  10   1   0 2676.83   77.39
  10  -1   0 2759.22   77.69
 -10  -1   0 2826.32   74.29
   8   1   1  632.54   23.90
   8  -1   1  632.64   22.70
   8  -1   1  670.13   18.30
  -8  -1  -1  696.33   20.40
   6   1   2 3120.49   85.09
   6  -1   2 3182.68   81.19
   6  -1   2 3096.99   84.89
   4   1   3  554.24   18.80
   4  -1   3  593.44   16.50
   4  -1   3  587.74   19.50
   2   1   4  931.61   27.30
   2  -1   4  938.11   27.50
   2  -1   4  941.41   25.70
   0   1   5    7.50    2.60
  -2  -1   6  231.08    7.70
  -2  -1   6  228.28    7.90
   2  -1  -6  235.78    8.80
  -4  -1   7 9407.46  238.98
   4  -1  -7 9307.77  241.08
   6   1  -8    1.80    1.60
  -6   1   8    0.00    0.60
  -6  -1   8   -0.20    2.20
   6  -1  -8   -1.50    2.60
  -8   1   9  241.38    8.30
  -8   1   9  248.98   10.60
   8   1  -9  244.88    8.40
  -8  -1   9  252.37    9.20
  -8  -1   9  240.18   10.70
   8  -1  -9  250.17   10.80
 -10   1  10   89.59    7.80
 -10  -1  10   90.89    7.70
  10  -1 -10   88.39    7.70
 -10  -1  10   71.39    5.80
 -12   1  11   70.59    8.80
  12  -1 -11   86.89    9.60
 -12  -1  11   96.69    8.90
  12   2  -1  249.48   15.20
 -12  -2   1  230.68   12.30
  12  -2  -1  256.17   16.10
  10   2   0   45.70   10.10
  10  -2   0   50.89    8.70
   8   2   1   55.19    9.60
  -8  -2  -1   43.90    5.00
  -8  -2  -1   44.60    4.40
   8  -2   1   51.69    3.70
   8  -2   1   55.69    7.60
   6   2   2   44.40    7.60
   6  -2   2   46.20    7.00
   6  -2   2   38.60    3.40
  -6  -2  -2   29.70    3.80
   4   2   3  319.97   12.80
   4  -2   3  296.67   12.30
  -4  -2  -3  305.67   10.20
   4  -2   3  305.57    9.90
   2   2   4   32.00    4.30
  -2  -2  -4   26.20    2.70
   2  -2   4   21.60    3.90
   2  -2   4   26.90    3.10
   0   2   5 5522.25  146.19
   0  -2   5 5696.83  144.59
   0  -2   5 5576.14  144.59
   2  -2  -6   17.20    3.70
  -2  -2   6   12.80    2.60
  -2  -2   6   12.90    2.00
   4  -2  -7   14.80    4.40
  -4  -2   7   12.40    3.30
  -6  -2   8   18.70    3.70
   6  -2  -8   19.30    4.80
  -8  -2   9   20.50    3.90
   8  -2  -9   19.60    5.30
 -10   2  10  241.78   11.30
  10  -2 -10  262.27   13.20
 -10  -2  10  239.98   12.00
 -10  -2  10  250.37   10.20
 -12  -2  11   47.40    5.80
  12  -2 -11   52.99    9.20
  12   3  -1   20.20    9.80
  12  -3  -1   -5.40    8.50
 -12  -3   1    1.70    1.50
  10   3   0  244.88   16.00
  10  -3   0  290.27   16.00
 -10  -3   0  260.87   10.90
 -10  -3   0  270.47   11.50
   8   3   1 1043.00   33.70
   8  -3   1  990.10   33.50
  -8  -3  -1 1012.60   29.30
  -8  -3  -1 1011.80   29.10
   6   3   2  220.48   12.20
  -6  -3  -2  215.28    8.80
   6  -3   2  209.78   11.70
   4   3   3  401.36   15.30
   4  -3   3  377.36   15.00
  -4  -3  -3  374.16   12.70
   4  -3   3  381.46   12.30
   2   3   4  141.69    8.30
   2  -3   4  123.29    6.50
  -2  -3  -4  126.09    6.00
   2  -3   4  133.39    7.40
   0   3   5  630.04   20.80
   0  -3   5  594.74   18.70
   0  -3  -5  641.64   18.70
   0  -3   5  644.34   19.00
  -2   3   6   19.80    2.10
   2  -3  -6   22.00    4.80
  -2  -3   6   20.60    2.50
  -2  -3   6   23.10    3.70
  -4   3   7   79.39    4.10
   4  -3  -7   80.89    7.00
  -4  -3   7   83.09    5.70
  -6   3   8 1602.04   42.80
  -6  -3   8 1566.24   43.90
   6  -3  -8 1601.44   46.80
  -8   3   9    1.30    1.00
   8  -3  -9    3.90    5.30
  -8  -3   9    5.60    4.20
  -8  -3   9    3.00    1.20
 -10   3  10   -0.90    1.30
 -10  -3  10   -0.40    1.30
  10  -3 -10    0.40    6.20
 -10  -3  10    5.40    4.40
  12  -3 -11    8.40    7.90
 -12  -3  11   14.10    5.40
  10   4   0   15.90   11.00
  10  -4   0   29.20    9.20
 -10  -4   0   25.90    5.90
   8   4   1  179.98   13.10
  -8  -4  -1  176.98    9.40
   8  -4   1  198.68   13.60
   6   4   2 1487.75   44.00
   6  -4   2 1468.25   39.90
  -6  -4  -2 1459.35   41.10
   6  -4   2 1410.46   44.30
   4   4   3   22.50    6.30
  -4  -4  -3   20.20    4.30
   4  -4   3   21.50    5.80
   4  -4   3   17.20    3.80
   2   4   4 1887.91   53.89
   2  -4   4 1856.81   52.79
  -2  -4  -4 1900.01   51.49
   2  -4   4 1909.01   51.39
   0   4   5   11.80    5.00
   0  -4  -5   19.50    3.80
   0  -4  -5   16.60    5.20
   0  -4   5   20.30    3.90
   0  -4   5   24.00    4.40
   2  -4  -6 2712.03   74.99
   2  -4  -6 2661.33   71.69
  -2  -4   6 2729.33   72.49
  -4  -4   7   60.09    6.20
   4  -4  -7   54.99    7.70
   6  -4  -8  235.68   12.90
  -6  -4   8  215.98   10.20
  -8  -4   9   23.70    5.30
   8  -4  -9   21.00    7.60
 -10  -4  10  987.00   30.40
 -10  -4  10  995.30   32.50
  10  -4 -10 1022.10   35.70
   8   5   1  289.77   17.10
  -8  -5  -1  313.57   13.60
   8  -5   1  294.97   18.00
   6   5   2   32.30    8.90
   6  -5   2   44.50    8.80
  -6  -5  -2   38.90    6.20
   6  -5   2   38.30    5.20
   4   5   3  371.96   16.90
   4  -5   3  371.96   13.60
  -4  -5  -3  359.76   14.10
   4  -5   3  357.36   16.50
   2   5   4   58.39    8.30
   2  -5   4   51.49    7.40
   2  -5   4   47.00    6.10
  -2  -5  -4   53.89    6.20
   0   5   5   87.19    8.40
   0  -5   5   50.29    6.40
   2  -5  -6   78.89    6.40
   2  -5  -6   74.09    8.70
  -2  -5   6   83.69    7.20
  -4  -5   7  450.45   17.00
   4  -5  -7  479.55   16.00
   4  -5  -7  499.85   20.60
   6  -5  -8  305.97   16.50
  -6  -5   8  299.27   13.30
  -8  -5   9  502.35   18.90
   8  -5  -9  504.45   23.10
  -8  -5   9  536.85   20.10
   4   6   3   76.09   11.40
  -4  -6  -3   92.49    8.90
   4  -6   3   84.49    8.00
   4  -6   3   91.79   12.00
   2   6   4    1.20    7.00
   2  -6   4   -2.80    4.60
  -2  -6  -4   10.90    5.60
   2  -6   4    8.00    7.00
   0  -6  -5   30.50    6.10
   0  -6   5   14.50    6.00
  -2  -6   6  169.78   10.60
   2  -6  -6  170.18   10.30
   2  -6  -6  136.09   12.70
   4  -6  -7    3.00    5.20
  -4  -6   7   -3.30    5.80
   4  -6  -7   -6.40    8.20
  13   0  -1  172.88   15.50
  11   0   0   21.20    7.10
   9   0   1    1.70    6.40
   7   0   2   -2.90    6.80
   5   0   3  123.09   10.10
   3   0   4   -1.30    4.00
   1   0   5 1576.74   43.20
  -1   0   6    0.20    2.30
  -3   0   7 2709.23   71.19
  -5   0   8   -0.10    1.80
   5   0  -8   -2.30    2.00
   7   0  -9  784.72   23.00
  -7   0   9  784.72   22.30
  -9   0  10    0.50    1.00
  -9   0  10   -2.10    3.00
  11   0 -11  105.39    8.30
 -11   0  11  102.29    8.50
 -13   0  12   -1.40    1.50
  13   1  -1  145.99   12.80
  13  -1  -1  107.09   14.10
  11   1   0   36.90    8.60
  11  -1   0   58.89    9.50
   9   1   1  240.48   14.60
  -9  -1  -1  262.97   10.80
   9  -1   1  268.37   13.80
   7   1   2  726.13   25.20
   7  -1   2  702.83   24.60
   7  -1   2  759.32   20.40
   5  -1   3   16.60    2.50
   5  -1   3   15.00    5.90
   3   1   4   47.60    5.10
   3  -1   4   49.60    7.10
   3  -1   4   42.30    3.20
   1   1   5 1972.10   54.39
   1  -1   5 2027.60   54.19
   1  -1   5 2009.60   52.99
  -1   1   6 1421.06   39.40
  -1  -1   6 1429.26   38.50
  -1  -1   6 1419.46   38.30
   3  -1  -7    1.00    2.50
  -3  -1   7    0.90    2.10
  -3  -1   7   -0.50    1.90
  -5  -1   8 1667.43   44.30
  -5  -1   8 1700.73   45.40
   5  -1  -8 1702.73   46.70
  -7   1   9  864.61   25.90
   7   1  -9  890.81   23.70
  -7   1   9  865.31   24.20
   7  -1  -9  849.12   26.30
  -7  -1   9  861.01   24.70
  -9   1  10  762.72   23.80
  -9  -1  10  758.52   22.20
  -9  -1  10  747.33   24.30
   9  -1 -10  748.93   24.30
 -11   1  11 2077.29   57.79
  11  -1 -11 2046.70   58.29
 -11  -1  11 1997.20   58.19
 -11  -1  11 2086.29   55.09
 -13   1  12    0.20    1.60
 -13  -1  12   -1.70    1.50
  13  -1 -12    8.70    6.80
  13   2  -1  236.08   15.10
 -13  -2   1  158.48   11.40
  13  -2  -1  210.08   16.60
  11   2   0    6.00    8.00
 -11  -2   0    2.80    1.30
  11  -2   0    8.30    7.40
   9   2   1 2011.30   57.89
   9  -2   1 1871.21   57.09
  -9  -2  -1 1997.60   53.69
   7   2   2  147.89   11.60
   7  -2   2  152.88   10.10
   7  -2   2  157.28    6.60
   5   2   3   12.60    5.90
   5  -2   3   13.80    2.50
   5  -2   3   20.40    5.50
   3   2   4   35.50    5.60
   3  -2   4   33.30    3.30
   3  -2   4   26.60    4.90
   1   2   5 6563.74  168.68
   1  -2   5 6487.05  166.78
   1  -2   5 6364.86  167.38
  -1   2   6  497.85   16.90
  -1  -2   6  530.95   15.80
  -1  -2   6  516.55   15.30
  -3  -2   7  370.16   10.30
   3  -2  -7  373.46   13.80
  -3  -2   7  368.76   12.40
  -5   2   8 1979.20   51.89
  -5  -2   8 1901.21   52.09
   5  -2  -8 1922.11   53.99
  -7   2   9 2140.39   57.29
  -7  -2   9 2084.39   56.99
   7  -2  -9 2141.19   59.49
  -9   2  10   54.69    6.30
  -9  -2  10   61.79    5.60
  -9  -2  10   66.79    7.10
   9  -2 -10   58.49    7.60
 -11   2  11   -0.10    1.30
 -11  -2  11    0.40    1.40
 -11  -2  11   -3.60    4.10
  11  -2 -11   -1.60    5.70
  13  -2 -12   30.50    8.70
  11   3   0   34.30   11.90
  11  -3   0   55.49   10.40
   9   3   1   -6.70    9.10
  -9  -3  -1   -5.40    3.80
  -9  -3  -1    1.70    1.10
   9  -3   1    0.30    6.70
   7   3   2  919.91   30.50
  -7  -3  -2  899.31   26.90
   7  -3   2  951.70   30.90
   5   3   3    7.00    5.50
  -5  -3  -3    7.20    3.20
   5  -3   3   15.80    3.30
   5  -3   3   11.20    5.10
   3   3   4  551.84   19.40
   3  -3   4  548.35   16.60
   3  -3   4  524.55   18.40
  -3  -3  -4  535.75   16.80
   1   3   5  112.49    7.80
   1  -3   5  105.39    6.00
  -1  -3   6 2991.60   78.99
   1  -3  -6 3037.80   81.09
  -1  -3   6 2935.41   78.19
  -3   3   7  148.69    5.50
  -3  -3   7  149.49    7.30
   3  -3  -7  142.89    8.80
  -5   3   8 1034.10   28.00
   5  -3  -8 1019.80   31.80
  -5  -3   8  983.80   29.20
   7  -3  -9  632.54   22.60
  -7  -3   9  623.64   19.90
  -9   3  10  152.28    8.50
  -9  -3  10  167.58   10.40
   9  -3 -10  163.08   11.40
  -9  -3  10  149.19    8.90
 -11   3  11   88.29    8.80
 -11  -3  11   96.29   10.50
  11  -3 -11  105.59   11.50
 -11  -3  11   92.89    8.10
   9   4   1   28.70   11.20
   9  -4   1   37.00    9.80
  -9  -4  -1   34.90    5.70
   7   4   2   -8.70    6.30
   7  -4   2   -0.70    3.50
   7  -4   2    5.30    6.60
  -7  -4  -2   -3.70    3.80
   5   4   3  161.38   11.00
   5  -4   3  160.78   11.30
   5  -4   3  156.58    7.70
  -5  -4  -3  148.99    8.10
   3   4   4   -2.40    4.80
  -3  -4  -4    2.30    3.00
   3  -4   4    1.70    4.90
   3  -4   4    6.20    3.70
   1   4   5  114.79    8.70
   1  -4   5  119.69    6.90
   1  -4   5  107.89    8.70
  -1  -4  -5  103.09    6.50
   1  -4  -6  648.84   19.70
   1  -4  -6  628.84   22.30
  -1  -4   6  644.94   20.20
   3  -4  -7   64.19    7.90
  -3  -4   7   68.99    6.30
  -5  -4   8  108.89    7.50
   5  -4  -8  113.19    9.60
   7  -4  -9 1720.73   51.59
  -7  -4   9 1677.53   47.70
   9  -4 -10  191.48   13.90
  -9  -4  10  193.68   11.70
  -9  -4  10  188.68   10.50
   7   5   2  100.79   13.00
   7  -5   2  126.79   12.40
  -7  -5  -2   96.99    9.30
   5   5   3   47.20    9.10
   5  -5   3   53.89    9.20
  -5  -5  -3   53.59    7.00
   5  -5   3   43.90    5.70
   3   5   4  131.89   10.70
  -3  -5  -4  115.99    7.70
   3  -5   4  123.29    8.00
   3  -5   4  142.79   10.50
   1   5   5  210.48   12.70
   1  -5   5  191.88    9.90
   1  -5   5  185.78   10.90
  -1  -5  -5  210.38    9.90
   1  -5  -6  475.25   19.40
  -1  -5   6  471.55   17.10
   1  -5  -6  501.65   16.90
   3  -5  -7   15.10    6.90
   3  -5  -7    9.40    4.40
  -3  -5   7    8.70    4.80
   5  -5  -8   98.69   11.00
  -5  -5   8  102.49    8.40
  -7  -5   9   10.20    1.80
   7  -5  -9   33.30    9.70
  -7  -5   9   17.60    6.10
   3   6   4   82.99   12.10
  -3  -6  -4   88.59    8.90
   3  -6   4   72.59   10.80
   3  -6   4   86.09    8.30
   1   6   5  392.66   19.40
  -1  -6  -5  410.56   16.40
   1  -6   5  406.26   16.00
  -1   6   6  107.29   10.90
  -1  -6   6   99.89    9.00
   1  -6  -6   68.59    8.20
  -3  -6   7   -1.20    5.60
   3  -6  -7    8.00    5.30
   3  -6  -7    3.80    7.80
  12   0   0  127.29   12.00
  10   0   1    8.40    6.60
   8   0   2 1718.53   50.69
   6   0   3   -1.30    7.10
   4   0   4 2079.19   57.69
   2   0   5   -0.10    3.60
   0   0   6  587.54   18.00
  -2   0   7    0.80    2.40
  -4   0   8 3743.23   96.49
  -4   0   8 3639.54   95.99
  -6   0   9    1.10    2.10
   6   0  -9    1.60    2.60
  -8   0  10  810.42   23.00
   8   0 -10  803.52   24.90
  -8   0  10  790.32   25.00
 -10   0  11    1.70    1.20
 -10   0  11    1.30    3.50
 -12   0  12    6.00    1.80
  12   1   0  426.46   19.80
  12  -1   0  435.76   20.20
  10   1   1  550.34   22.70
  10  -1   1  550.74   21.80
   8   1   2    2.00    7.80
   8  -1   2    4.90    5.10
   6   1   3   84.09   10.10
   6  -1   3   61.49    8.90
   6  -1   3   65.79    3.90
   4   1   4  210.98   10.60
   4  -1   4  189.68   11.20
   4  -1   4  197.18    7.30
   2   1   5 1516.05   43.20
   2  -1   5 1532.65   41.20
   2  -1   5 1559.74   43.20
   0   1   6 3672.33   95.29
   0  -1   6 3561.74   93.69
   0  -1   6 3565.14   94.39
  -2   1   7  711.53   21.60
  -2  -1   7  704.33   20.40
  -2  -1   7  717.03   20.30
   4  -1  -8  650.03   20.30
  -4  -1   8  655.53   18.50
  -4  -1   8  668.33   19.40
  -6  -1   9  636.34   18.10
   6  -1  -9  643.34   20.50
  -6  -1   9  670.63   19.40
  -8   1  10 1343.07   37.20
  -8   1  10 1373.36   39.30
   8  -1 -10 1369.96   39.70
  -8  -1  10 1409.16   38.00
 -10   1  11  142.19    9.40
  10  -1 -11  147.39    9.40
 -10  -1  11  145.09    7.80
 -10  -1  11  145.19    9.60
 -12   1  12    0.90    1.40
 -12  -1  12    1.30    1.50
  12  -1 -12    0.50    5.90
  12   2   0  555.84   24.10
  12  -2   0  573.44   24.80
 -12  -2   0  568.64   20.10
  10   2   1   16.70    9.70
  10  -2   1   36.20    8.10
   8   2   2  207.48   14.00
   8  -2   2  190.48   11.70
   6   2   3 1284.57   38.50
   6  -2   3 1233.98   34.10
   6  -2   3 1253.57   38.20
   4   2   4  386.26   15.30
   4  -2   4  363.56   14.70
   4  -2   4  383.16   12.10
   2   2   5  337.47   14.30
   2  -2   5  402.16   14.00
   2  -2   5  420.96   12.50
   0   2   6  531.35   17.80
   0  -2   6  530.75   16.10
   0  -2   6  504.95   16.20
  -2  -2   7 1316.57   39.40
  -2  -2   7 1511.35   38.60
   2  -2  -7 1518.65   41.40
   4  -2  -8   10.50    4.30
  -4  -2   8   11.20    3.40
  -6   2   9  159.88    7.30
   6  -2  -9  160.08    8.90
  -6  -2   9  149.88    7.50
  -8   2  10  703.93   21.70
   8  -2 -10  688.43   23.60
  -8  -2  10  680.83   21.20
 -10   2  11   81.39    7.50
  10  -2 -11   74.99    8.70
 -10  -2  11   72.19    8.00
 -10  -2  11   62.59    6.40
 -12   2  12  325.77   14.60
 -12  -2  12  316.57   12.80
  12  -2 -12  318.37   16.50
 -12  -2  12  319.47   15.70
  12   3   0    5.50   11.30
  12  -3   0   21.90    9.40
  10   3   1  -11.70    9.00
  10  -3   1    0.90    7.60
   8   3   2  103.99   11.80
   8  -3   2  110.39   10.40
  -8  -3  -2  106.99    7.00
   6   3   3  364.56   16.40
  -6  -3  -3  352.16   12.80
   6  -3   3  356.86   12.00
   6  -3   3  374.16   16.30
   4   3   4 1724.53   49.80
   4  -3   4 1699.13   49.20
   4  -3   4 1769.22   46.60
  -4  -3  -4 1686.53   46.90
   2   3   5  536.05   18.90
   2  -3   5  514.35   17.50
   2  -3   5  526.45   16.50
  -2  -3  -5  522.55   16.40
   0   3   6  121.29    7.90
   0  -3   6  108.09    6.30
   0  -3   6  116.89    6.50
   2  -3  -7  591.64   20.30
  -2  -3   7  580.94   18.30
  -2  -3   7  586.64   16.60
  -4   3   8  156.78    6.20
  -4  -3   8  145.39    7.60
   4  -3  -8  149.39    9.40
  -6  -3   9  214.58    9.60
   6  -3  -9  216.28   11.80
  -8   3  10  194.68    9.10
   8  -3 -10  196.48   11.80
  -8  -3  10  183.48    9.40
 -10   3  11  448.46   16.00
 -10  -3  11  422.46   15.80
 -10  -3  11  422.36   17.70
  10  -3 -11  439.26   19.30
  10  -4   1   -0.20    8.70
 -10  -4  -1    0.10    5.10
   8   4   2    0.10    8.00
  -8  -4  -2    0.00    4.20
   8  -4   2    2.60    7.50
   6   4   3    7.50    6.80
  -6  -4  -3   24.80    4.90
   6  -4   3   33.30    7.50
   6  -4   3   19.40    4.20
   4   4   4   60.79    8.40
  -4  -4  -4   67.99    6.00
   4  -4   4   69.89    5.90
   4  -4   4   66.49    8.40
   2   4   5   62.19    7.60
   2  -4   5   68.49    7.30
  -2  -4  -5   66.89    5.80
   2  -4   5   66.89    5.90
   0   4   6  650.53   23.20
   0  -4   6  650.33   20.70
   0  -4  -6  679.83   20.60
   2  -4  -7   -1.40    4.50
  -2  -4   7   -4.00    3.00
   4  -4  -8 3901.61  105.89
  -4  -4   8 3849.71  102.79
  -6  -4   9   39.30    5.70
   6  -4  -9   40.80    8.00
  -8  -4  10    8.70    5.10
   8  -4 -10    3.30    6.60
 -10  -4  11   13.90    6.10
 -10  -4  11    6.30    2.00
  10  -4 -11    9.60    8.50
   8   5   2   -7.60   10.20
  -8  -5  -2    1.50    5.60
   8  -5   2   -3.90    8.50
   6   5   3  124.49   12.40
  -6  -5  -3  138.59    9.30
   6  -5   3  140.99    8.40
   6  -5   3  126.79   12.10
   4   5   4  359.46   17.40
   4  -5   4  365.66   13.90
   4  -5   4  372.86   17.10
  -4  -5  -4  362.46   14.40
   2   5   5   57.59    8.80
  -2  -5  -5   66.69    6.90
   2  -5   5   61.79    8.30
   2  -5   5   66.09    7.10
   0   5   6   25.40    7.10
   0  -5  -6   18.90    4.60
   0  -5   6   24.30    5.40
  -2  -5   7    2.20    4.60
   2  -5  -7    1.90    6.10
   2  -5  -7    2.30    3.90
  -4  -5   8   19.10    5.70
   4  -5  -8   13.20    7.50
   6  -5  -9  160.98   13.10
  -6  -5   9  120.99    9.60
   2   6   5   27.60    9.30
   2  -6   5   23.20    6.10
  -2  -6  -5   24.60    6.30
   0   6   6  182.18   13.90
   0  -6   6  178.58   11.00
   0  -6  -6  193.38   10.80
   2  -6  -7   94.59   11.50
  -2  -6   7   87.59    9.20
   2  -6  -7   88.99    8.60
  13   0   0  128.39   14.20
  11   0   1   21.60    7.40
   9   0   2    3.40    7.10
   7   0   3 1447.56   44.00
   5   0   4    9.30    7.00
   3   0   5   72.59    7.50
   1   0   6    0.90    3.70
  -3   0   8   -1.10    2.30
  -5   0   9  192.28    7.90
  -5   0   9  209.18    7.90
   7   0 -10   -3.70    2.60
  -7   0  10    1.20    2.80
  -9   0  11  312.07   11.20
  -9   0  11  297.17   13.00
 -11   0  12    3.10    4.00
 -11   0  12    1.10    1.40
 -13   0  13   -0.20    1.60
  13   1   0  558.94   23.80
  13  -1   0  561.24   25.00
  11   1   1   42.30    9.90
  11  -1   1   59.99   10.40
   9   1   2  310.97   17.10
   9  -1   2  305.77   15.30
   7   1   3  688.03   24.80
   7  -1   3  631.34   23.60
   7  -1   3  683.03   19.20
   5   1   4  438.46   17.60
   5  -1   4  430.96   17.90
   5  -1   4  443.66   13.50
   3   1   5   25.90    5.80
   3  -1   5   17.80    6.00
   3  -1   5   17.70    2.90
   1   1   6 1689.63   46.80
   1  -1   6 1693.33   46.40
   1  -1   6 1639.94   44.90
  -1   1   7 4697.83  123.89
  -1  -1   7 4719.83  122.59
  -1  -1   7 4762.52  122.99
  -3   1   8   51.39    4.80
  -3  -1   8   52.59    4.30
  -3  -1   8   50.69    4.30
   5  -1  -9   29.30    4.40
  -5  -1   9   23.60    3.20
  -5  -1   9   36.70    4.30
  -7   1  10 1777.12   48.80
  -7   1  10 1780.42   47.20
   7  -1 -10 1598.74   48.80
  -7  -1  10 1777.32   46.40
  -7  -1  10 1840.72   47.80
  -9   1  11  514.85   15.70
  -9   1  11  515.25   18.00
  -9  -1  11  501.55   18.40
  -9  -1  11  472.85   16.10
   9  -1 -11  500.75   18.00
 -11   1  12   96.99    8.80
 -11  -1  12   98.59    7.40
 -11  -1  12  106.79    9.60
  11  -1 -12  106.69    9.50
 -13   1  13  143.99   11.90
 -13  -1  13  155.98   12.10
  11   2   1  135.59   14.40
  11  -2   1  141.79   12.80
   9   2   2   29.10   10.00
   9  -2   2   28.10    6.70
   7   2   3 1411.46   43.70
   7  -2   3 1439.66   43.30
   5   2   4  195.48   11.70
   5  -2   4  169.68    7.10
   5  -2   4  178.48   10.70
   3   2   5  255.77   11.80
   3  -2   5  250.57    9.20
   3  -2   5  230.98   11.00
   1   2   6  175.68    9.40
   1  -2   6  156.28    8.20
   1  -2   6  174.48    7.40
  -1   2   7  989.70   29.50
  -1  -2   7  949.01   27.30
  -1  -2   7  983.70   27.70
  -3  -2   8   42.40    3.20
  -3  -2   8   38.00    4.60
   3  -2  -8   28.90    5.10
  -5  -2   9 2410.66   64.89
   5  -2  -9 2440.96   66.89
  -7   2  10  143.69    7.90
   7  -2 -10  145.79    9.30
  -7  -2  10  136.19    7.40
  -9   2  11 1717.73   46.80
  -9   2  11 1745.33   48.70
   9  -2 -11 1748.33   50.79
  -9  -2  11 1708.33   50.09
  -9  -2  11 1757.82   48.00
 -11   2  12   82.69    8.70
  11  -2 -12   92.69   10.40
 -11  -2  12  104.59    8.00
 -11  -2  12   97.29    9.60
  11   3   1  -10.20   10.90
  11  -3   1   -1.10    8.20
   9   3   2  177.18   16.00
   9  -3   2  189.48   13.40
   7   3   3  355.66   17.30
   7  -3   3  391.16   12.60
   7  -3   3  370.76   16.90
   5   3   4    1.10    5.90
   5  -3   4    4.60    5.00
   5  -3   4    4.40    3.10
  -5  -3  -4    3.30    3.40
   3   3   5    4.60    5.10
   3  -3   5    5.60    3.30
   3  -3   5    4.90    4.80
   1   3   6 1130.89   34.10
   1  -3   6 1095.99   32.00
   1  -3   6 1114.59   31.60
  -1   3   7 1198.38   36.10
  -1  -3   7 1230.88   34.10
  -1  -3   7 1172.98   33.00
  -3  -3   8  458.95   15.60
   3  -3  -8  474.95   17.70
  -5  -3   9  332.57   12.40
   5  -3  -9  341.07   14.80
  -7   3  10 1068.79   30.00
  -7  -3  10 1031.60   30.80
   7  -3 -10 1036.30   33.60
  -9   3  11    2.00    1.20
  -9  -3  11   13.50    5.00
   9  -3 -11   16.00    6.90
  -9  -3  11    5.20    1.60
  11  -3 -12   74.19   11.00
 -11  -3  12   55.29    7.20
   9   4   2   62.49   13.50
   9  -4   2   65.99   11.60
  -9  -4  -2   68.89    7.70
   7   4   3  281.57   16.20
  -7  -4  -3  293.07   12.30
   7  -4   3  308.17   16.20
   5   4   4  118.69   10.90
  -5  -4  -4  135.39    7.90
   5  -4   4  125.89   10.30
   5  -4   4  122.79    7.40
   3   4   5   20.70    6.60
  -3  -4  -5   20.50    4.10
   3  -4   5   17.30    4.30
   3  -4   5   20.10    5.50
   1   4   6  120.39    9.50
  -1  -4  -6  125.69    7.40
   1  -4   6  133.09    7.60
  -1   4   7  395.26   16.50
  -1  -4   7  403.26   14.50
  -3  -4   8   98.49    7.10
   3  -4  -8   98.29    9.10
  -5  -4   9  177.98    9.60
   5  -4  -9  179.48   11.90
   7  -4 -10    8.10    6.50
  -7  -4  10    9.60    4.90
  -9  -4  11   89.79    8.70
  -9  -4  11  105.79   10.70
   9  -4 -11   86.19   11.60
   7   5   3   50.69   11.50
  -7  -5  -3   49.80    7.20
   7  -5   3   64.29   11.40
   5   5   4   48.00   10.10
  -5  -5  -4   52.79    7.10
   5  -5   4   53.69    6.40
   5  -5   4   59.59    9.70
   3   5   5  174.28   12.60
  -3  -5  -5  176.48    9.90
   3  -5   5  168.28    9.20
   3  -5   5  176.88   12.00
   1   5   6    3.30    6.20
   1  -5   6    2.70    4.60
   1  -5   6    2.70    5.40
  -1  -5  -6    8.00    4.60
  -1   5   7  119.09   10.10
  -1  -5   7  120.19    8.50
   1  -5  -7  107.09    7.80
  -3  -5   8  215.38   10.90
   3  -5  -8  184.68   12.90
  -5  -5   9   25.90    6.20
   5  -5  -9   29.40    8.80
  -7  -5  10  239.48   12.50
   7  -5 -10  230.78   16.20
   1   6   6   59.29   10.60
   1  -6   6   62.79    8.20
  -1  -6  -6   67.69    8.20
  -1   6   7  248.48   16.20
  -1  -6   7  287.57   13.70
   1  -6  -7  283.37   13.20
  12   0   1   68.89   11.40
  10   0   2  227.08   14.30
   8   0   3   -2.10    7.20
   6   0   4 2412.96   68.29
   4   0   5    6.90    6.60
   2   0   6    1.10    4.20
   0   0   7    4.20    3.40
  -2   0   8  445.06   14.70
  -4   0   9    0.60    2.50
  -4   0   9    2.40    2.80
  -6   0  10  913.91   25.80
  -6   0  10  887.01   26.10
  -8   0  11    1.30    3.40
 -10   0  12   -6.20    3.60
 -10   0  12   -1.20    1.20
 -12   0  13   -0.40    1.50
  12   1   1   22.20    9.10
  12  -1   1   27.20    9.00
  10   1   2 1193.58   39.30
  10  -1   2 1153.98   38.10
   8   1   3   -2.10    8.20
   8  -1   3    8.80    5.90
   6   1   4   41.50    8.90
   6  -1   4   30.60    8.10
   6  -1   4   35.90    3.80
   4   1   5   51.09    7.80
   4  -1   5   57.09    9.40
   4  -1   5   39.80    4.10
   2   1   6 1904.41   52.79
   2  -1   6 1864.01   52.69
   2  -1   6 1887.71   50.59
   0   1   7 5871.21  151.38
   0  -1   7 5738.43  150.38
   0  -1   7 5735.93  149.59
  -2   1   8  550.84   17.90
  -2  -1   8  537.85   16.70
  -2  -1   8  555.24   16.90
  -4   1   9  322.87   12.30
  -4  -1   9  325.47   10.80
   4  -1  -9  335.87   12.40
  -4  -1   9  337.17   11.60
   6  -1 -10  550.24   18.40
  -6  -1  10  539.15   17.20
  -6  -1  10  553.34   16.00
  -8   1  11   23.60    4.00
   8  -1 -11   21.60    5.20
  -8  -1  11   25.70    4.50
 -10   1  12  363.06   12.70
 -10   1  12  363.36   15.00
 -10  -1  12  355.76   15.20
 -10  -1  12  346.47   13.10
  10  -1 -12  352.36   14.80
 -12   1  13    1.00    1.60
 -12  -1  13    2.50    1.70
  12   2   1   34.60   11.70
  12  -2   1   29.10   10.10
  10   2   2 1016.50   35.80
  10  -2   2  981.20   33.90
   8  -2   3   61.99    8.80
   6   2   4 1156.88   36.00
   6  -2   4 1118.19   35.20
   6  -2   4 1118.59   31.40
   4   2   5 1106.59   33.60
   4  -2   5 1049.70   32.90
   2   2   6   36.40    6.40
   2  -2   6   37.30    6.20
   2  -2   6   39.40    4.50
   0   2   7   86.69    7.20
   0  -2   7   81.79    6.60
   0  -2   7   76.99    5.60
  -2   2   8  107.39    7.80
  -2  -2   8  109.79    6.20
  -2  -2   8  107.39    5.90
  -4  -2   9  485.85   15.60
   4  -2  -9  461.75   17.10
  -6   2  10  148.49    8.00
  -6  -2  10  183.28    8.40
   6  -2 -10  178.68    9.90
  -8   2  11   -0.50    1.00
   8  -2 -11    0.50    5.10
  -8  -2  11   -4.50    3.80
 -10   2  12   -0.40    1.30
  10  -2 -12   -3.30    5.70
 -10  -2  12   -1.40    4.40
 -10  -2  12    0.30    1.40
 -12   2  13    5.20    1.90
 -12  -2  13   25.70    6.10
 -12  -2  13    9.60    2.20
  12  -2 -13   18.70    8.20
  10   3   2    0.70   11.30
  10  -3   2   14.70    8.30
   8   3   3   27.30    9.80
   6   3   4  303.27   15.50
   6  -3   4  289.37   14.50
   6  -3   4  284.27   10.80
   4   3   5   14.10    6.10
   4  -3   5   24.40    6.00
   4  -3   5   11.80    3.70
   2   3   6    2.80    4.80
   2  -3   6    6.40    4.30
   2  -3   6    0.00    3.00
   0   3   7   54.19    6.90
   0  -3   7   51.69    5.20
   0  -3   7   53.19    5.40
  -2   3   8 1743.13   51.59
  -2  -3   8 1827.62   49.80
   2  -3  -8 1866.01   52.09
  -2  -3   8 1807.42   47.90
  -4  -3   9  421.46   15.00
   4  -3  -9  447.16   17.30
   6  -3 -10    5.20    5.60
  -6  -3  10   -2.20    3.90
  -8   3  11   60.79    6.30
  -8  -3  11   61.09    7.00
   8  -3 -11   58.99    8.60
 -10   3  12   83.09    8.20
 -10  -3  12   86.29    9.70
  10  -3 -12   93.19   10.80
 -10  -3  12   75.59    8.30
   8   4   3   10.20   10.10
   8  -4   3   18.70    9.10
  -8  -4  -3   25.40    5.70
   6   4   4  162.98   12.80
   6  -4   4  166.08   12.90
  -6  -4  -4  171.28    9.30
   6  -4   4  169.28    8.40
   4   4   5   48.80    8.60
   4  -4   5   43.80    5.60
  -4  -4  -5   41.80    5.30
   4  -4   5   56.49    8.70
   2   4   6  222.58   12.60
  -2  -4  -6  221.98    9.80
   2  -4   6  189.08    9.40
   2  -4   6  211.68   11.10
   0   4   7   49.20    8.10
   0  -4   7   46.80    5.70
  -2   4   8  964.10   31.60
   2  -4  -8 1013.60   32.00
  -2  -4   8  952.30   29.10
  -4  -4   9   53.49    6.30
   4  -4  -9   55.29    8.30
  -6  -4  10   35.60    5.80
   6  -4 -10   44.70    8.70
   8  -4 -11  165.58   13.40
  -8  -4  11  155.68   10.00
   6   5   4  128.69   13.70
   6  -5   4  131.79    8.80
   6  -5   4  151.08   13.90
  -6  -5  -4  148.59    9.90
   4   5   5  214.18   14.40
   4  -5   5  221.28   13.70
   4  -5   5  205.98   10.40
  -4  -5  -5  221.38   11.20
   2   5   6  227.18   14.20
   2  -5   6  222.78   12.30
   2  -5   6  224.68   11.00
  -2  -5  -6  220.98   11.00
   0   5   7  239.28   14.10
   0  -5   7  248.38   11.80
   0  -5  -7  244.58   11.30
  -2   5   8   39.80    7.50
  -2  -5   8   31.70    6.40
   2  -5  -8   37.80    8.30
  -4  -5   9   -0.50    5.00
   4  -5  -9    8.00    7.50
   6  -5 -10  125.19   13.40
  -6  -5  10  131.79   10.10
  11   0   2   19.00    7.60
   9   0   3   98.59   10.80
   7   0   4    0.00    7.50
   5   0   5   25.70    8.30
   3   0   6    2.70    6.30
   1   0   7 8090.69  209.88
  -1   0   8    2.80    3.60
  -3   0   9   49.00    4.10
  -3   0   9   46.40    4.80
  -5   0  10    0.00    2.70
  -5   0  10    3.30    3.10
  -7   0  11  239.08    9.60
  -9   0  12    1.60    3.70
  -9   0  12   -0.30    1.20
 -11   0  13  315.57   15.00
  11   1   2   64.59   11.70
  11  -1   2   98.19   12.10
   9   1   3  152.18   14.20
   9  -1   3  156.98    7.20
   9  -1   3  141.89   11.60
   7   1   4  242.98   15.30
   7  -1   4  246.08   13.80
   7  -1   4  264.47    9.40
   5   1   5    7.20    6.60
   5  -1   5    4.30    7.30
   5  -1   5    1.10    2.50
   3   1   6  433.36   17.10
   3  -1   6  440.56   14.10
   3  -1   6  446.46   17.80
   1   1   7  639.84   22.00
   1  -1   7  673.93   20.00
   1  -1   7  705.63   22.00
  -1   1   8  451.65   16.00
  -1  -1   8  438.76   14.30
  -1  -1   8  454.55   15.50
  -3   1   9 1505.45   42.30
  -3  -1   9 1469.35   41.00
  -3  -1   9 1498.65   40.70
  -5  -1  10  525.05   15.90
   5  -1 -10  528.05   17.80
  -5  -1  10  535.25   16.90
  -7   1  11 2014.40   54.99
  -7  -1  11 2048.00   55.39
   7  -1 -11 2074.79   56.89
  -9   1  12  248.08    9.70
  -9   1  12  236.18   11.70
  -9  -1  12  222.88   10.20
   9  -1 -12  223.58   11.50
 -11   1  13  352.66   15.70
 -11  -1  13  371.66   16.60
  11  -1 -13  369.56   16.20
 -11  -1  13  376.96   14.10
  11   2   2   85.79   14.30
  11  -2   2  108.59   12.10
   9   2   3    8.90    9.70
   9  -2   3   19.80    7.50
   7   2   4  101.49   11.90
   7  -2   4  121.49   10.40
   7  -2   4  112.69    6.30
   5   2   5   49.50    8.80
   5  -2   5   40.50    4.60
   5  -2   5   46.00    7.60
   3   2   6  561.04   20.20
   3  -2   6  520.45   17.20
   3  -2   6  575.44   19.70
   1   2   7 2767.02   73.49
   1  -2   7 2535.95   71.49
   1  -2   7 2669.63   70.79
  -1   2   8 1742.33   48.50
  -1  -2   8 1672.23   46.30
  -1  -2   8 1665.03   46.10
  -3   2   9  328.87   13.70
  -3  -2   9  342.77   12.50
  -3  -2   9  365.56   11.20
  -5  -2  10  459.05   15.50
   5  -2 -10  448.16   17.00
  -7   2  11 1216.28   34.80
   7  -2 -11 1196.88   36.80
  -7  -2  11 1203.58   34.60
  -9   2  12   37.90    4.80
  -9  -2  12   35.60    5.60
   9  -2 -12   36.70    7.50
 -11   2  13   -1.40    1.40
 -11  -2  13   -4.70    4.80
 -11  -2  13   -1.10    1.60
  11  -2 -13    8.30    7.10
  11   3   2   -3.50   12.30
  11  -3   2    8.10    9.10
   9   3   3   -9.00   10.00
   9  -3   3   23.40    8.30
   7   3   4  340.07   17.70
   7  -3   4  325.27   12.10
   7  -3   4  365.06   16.80
   5   3   5  573.24   21.80
   5  -3   5  559.14   20.80
   5  -3   5  536.25   17.50
   3   3   6  309.37   14.50
   3  -3   6  300.27   13.30
   3  -3   6  284.57   11.30
   1   3   7  106.89    8.90
   1  -3   7   94.59    6.50
   1  -3   7   98.09    6.80
  -1   3   8  787.62   26.20
  -1  -3   8  781.62   23.70
   3  -3  -9  834.32   27.60
  -3  -3   9  855.31   25.60
  -5  -3  10  293.77   11.90
   5  -3 -10  294.47   13.90
  -7   3  11   64.69    6.60
  -7  -3  11   61.69    7.10
   7  -3 -11   58.79    9.00
  -9   3  12  400.46   14.80
   9  -3 -12  379.76   18.10
  -9  -3  12  381.06   15.10
   9   4   3   17.00   13.00
   9  -4   3   41.20   10.00
   7   4   4    4.50    8.80
   7  -4   4   18.50    8.00
   7  -4   4   11.50    6.70
   5   4   5   65.49   10.40
   5  -4   5   68.49    9.60
   5  -4   5   57.89    6.20
   3   4   6  286.27   15.00
   3  -4   6  282.77   13.60
   3  -4   6  273.47   11.40
   1   4   7  577.04   21.90
   1  -4   7  579.44   19.10
   1  -4   7  588.54   20.00
  -1   4   8   42.00    7.80
  -1  -4   8   36.90    5.30
  -3  -4   9   50.99    6.40
   3  -4  -9   41.60    7.40
   5  -4 -10  109.39   10.20
  -5  -4  10  103.59    8.00
  -7  -4  11    5.80    5.00
   7  -4 -11   -1.20    7.00
   9  -4 -12   37.40   10.10
  -9  -4  12   28.40    6.40
   5   5   5   82.39   12.30
  -5  -5  -5   83.19    8.60
   5  -5   5   82.79    8.00
   5  -5   5   94.49   12.00
   3   5   6  199.68   15.10
  -3  -5  -6  229.58   11.40
   3  -5   6  229.18   13.50
   3  -5   6  208.78   11.10
   1   5   7   81.19   10.90
   1  -5   7   84.59    8.10
  -1   5   8    8.40    6.70
  -1  -5   8    2.20    4.90
  -3  -5   9  372.16   15.40
   3  -5  -9  358.66   17.80
   5  -5 -10   31.50    9.10
  -5  -5  10   38.50    6.80
  12   0   2 1209.08   40.80
  10   0   3    8.40    7.80
   8   0   4   12.70    8.60
   6   0   5    2.50    8.20
   4   0   6 2056.99   58.79
   2   0   7    1.70    5.50
   0   0   8  160.58    9.20
  -2   0   9    2.80    3.60
  -4   0  10 2768.62   74.69
  -4   0  10 2825.02   74.29
  -6   0  11    1.10    3.20
  -6   0  11    4.30    3.40
  -8   0  12  703.13   21.60
 -10   0  13   -3.80    4.30
 -10   0  13   -0.80    1.30
 -12   0  14  134.99   11.20
  12   1   2   76.99   13.00
  10   1   3   45.20   11.30
  10  -1   3   63.79   10.00
   8   1   4   31.70   10.40
   8  -1   4   41.80    8.70
   8  -1   4   23.00    4.00
   6   1   5   86.99   11.30
   6  -1   5   82.89    5.60
   6  -1   5   77.49   10.50
   4   1   6   53.99    8.70
   4  -1   6   43.80    4.90
   4  -1   6   57.19    9.10
   2   1   7   18.40    6.00
   2  -1   7   15.50    3.40
   2  -1   7   14.00    7.00
   0   1   8  106.79    8.00
   0  -1   8   99.49    8.50
   0  -1   8  101.19    6.00
  -2   1   9 2359.86   72.59
  -2  -1   9 2840.52   71.79
  -2  -1   9 2874.61   71.99
  -4   1  10  258.37   11.30
  -4  -1  10  272.97   10.30
  -4  -1  10  259.87   10.00
  -6  -1  11    3.80    3.60
   6  -1 -11    0.00    3.80
  -8   1  12  391.76   15.20
  -8   1  12  396.86   13.60
   8  -1 -12  390.16   15.30
  -8  -1  12  394.76   14.10
 -10   1  13   23.40    5.00
  10  -1 -13   27.00    6.90
 -10  -1  13   30.00    5.40
 -12   1  14    1.10    1.70
 -12  -1  14    7.60    2.20
  10   2   3   62.89   13.00
  10  -2   3   81.19   10.90
   8   2   4  218.28   16.40
   8  -2   4  277.07   14.60
   8  -2   4  220.48    9.40
   6   2   5   64.89   10.50
   6  -2   5   62.89    5.60
   6  -2   5   74.49    8.80
   4   2   6 1002.00   31.50
   4  -2   6  923.81   29.80
   4  -2   6  924.41   27.40
   2   2   7 1418.26   41.90
   2  -2   7 1432.96   39.00
   2  -2   7 1344.57   40.50
   0   2   8 2699.53   72.59
   0  -2   8 2547.55   70.29
   0  -2   8 2608.94   69.99
  -2   2   9  202.68   10.60
  -2  -2   9  206.38    8.80
  -2  -2   9  194.58    8.70
  -4   2  10 1542.35   45.40
  -4  -2  10 1604.84   43.90
   6  -2 -11    1.90    4.60
  -6  -2  11   -4.00    3.70
  -8   2  12  368.16   14.40
   8  -2 -12  360.26   15.90
  -8  -2  12  373.36   13.90
  10  -2 -13   16.60    7.30
 -10  -2  13    9.80    5.20
  10   3   3   81.09   15.80
  10  -3   3  107.49   12.90
   8   3   4  941.11   34.30
   8  -3   4  932.31   32.60
   6   3   5 2388.26   67.59
   6  -3   5 2249.77   61.89
   6  -3   5 2290.07   66.19
   4   3   6  229.48   13.60
   4  -3   6  246.38   12.50
   4  -3   6  234.98   10.10
   2   3   7 1502.45   44.60
   2  -3   7 1469.45   41.00
   2  -3   7 1429.96   42.30
   0   3   8  345.77   15.10
   0  -3   8  339.27   12.90
  -2   3   9 1396.76   42.00
  -2  -3   9 1386.76   39.50
   4  -3 -10  194.08   11.20
  -4  -3  10  199.58    9.70
  -6   3  11  126.99    7.80
   6  -3 -11  166.98   10.90
  -6  -3  11  161.68    8.80
  -8   3  12   -0.30    1.20
  -8  -3  12    2.10    4.90
   8  -3 -12   -6.30    6.10
 -10  -3  13  285.17   15.60
 -10  -3  13  261.87   13.00
  10  -3 -13  269.07   15.90
   8   4   4    9.80   11.30
   8  -4   4   35.30   10.00
   6   4   5   10.70    8.70
   6  -4   5   40.90    9.10
   6  -4   5   21.20    5.10
   4   4   6    0.90    7.10
   4  -4   6    7.70    4.30
   4  -4   6   14.30    6.80
   2   4   7    9.20    7.20
   2  -4   7   14.40    4.50
   2  -4   7   17.70    5.90
   0   4   8 1065.99   34.70
   0  -4   8 1070.19   31.70
  -2   4   9   19.90    6.80
  -2  -4   9   10.90    4.50
   4  -4 -10   14.90    6.90
  -4  -4  10   10.60    4.70
  -6  -4  11   32.90    6.20
   6  -4 -11   32.20    8.10
  -8  -4  12  217.08   11.70
   8  -4 -12  224.98   15.50
   4   5   6   84.39   12.50
   4  -5   6   72.19   11.20
   4  -5   6   59.49    7.90
   2   5   7    8.50    8.10
   2  -5   7   -3.60    5.20
   0   5   8  253.27   15.10
   0  -5   8  264.57   12.60
  -2   5   9    5.50    7.10
  -2  -5   9   -1.10    5.40
  -4  -5  10    5.30    5.70
   4  -5 -10   -1.10    7.50
  11   0   3  245.78   16.20
   9   0   4    6.50    9.00
   7   0   5  691.03   26.40
   5   0   6   -6.70    7.30
   3   0   7 1370.26   41.20
   1   0   8    3.70    5.90
  -1   0   9  571.24   19.20
  -3   0  10   -0.30    3.80
  -3   0  10    2.20    2.90
  -5   0  11  691.43   21.30
  -5   0  11  711.03   22.00
  -7   0  12    0.60    3.70
  -9   0  13 2761.12   73.39
  -9   0  13 2717.33   75.69
 -11   0  14    0.20    1.50
  11   1   3   54.79   12.40
  11  -1   3   73.59   11.20
   9   1   4  125.09   14.70
   9  -1   4  167.78   12.50
   7   1   5   -1.00    8.80
   7  -1   5   18.30    7.70
   7  -1   5   11.00    3.60
   5   1   6   66.79   10.70
   5  -1   6   60.89    5.40
   5  -1   6   64.19   10.10
   3   1   7 1052.89   33.10
   3  -1   7 1020.20   32.90
   3  -1   7 1036.40   29.70
   1   1   8  418.06   16.50
   1  -1   8  414.46   14.00
   1  -1   8  420.66   16.60
  -1   1   9   85.69    8.10
  -1  -1   9   91.79    7.90
  -1  -1   9   85.49    5.80
  -3   1  10   48.60    6.70
  -3  -1  10   48.90    6.10
  -3  -1  10   51.59    5.20
  -5   1  11   28.40    5.60
  -5  -1  11   25.40    4.60
  -7   1  12   20.20    4.30
   7  -1 -12   29.80    5.70
  -7  -1  12   18.90    4.50
  -9   1  13    1.80    4.30
  -9   1  13    0.50    1.30
  -9  -1  13    0.80    4.60
   9  -1 -13    3.80    5.30
 -11   1  14    8.70    2.00
 -11  -1  14   20.00    6.10
 -11  -1  14    9.00    2.00
  11   2   3   78.49   15.30
  11  -2   3  108.99   12.50
   9   2   4    0.50   10.40
   9  -2   4   26.60    7.50
   7   2   5  642.04   25.50
   7  -2   5  611.74   19.10
   7  -2   5  595.34   23.30
   5   2   6   63.39    9.10
   5  -2   6   85.89    9.20
   5  -2   6   62.99    5.80
   3   2   7 1067.09   33.30
   3  -2   7  996.80   31.80
   3  -2   7 1020.80   29.70
   1   2   8   46.40    7.50
   1  -2   8   49.20    7.00
   1  -2   8   35.10    4.60
  -1   2   9    2.70    4.80
  -1  -2   9    7.10    4.60
  -1  -2   9    3.70    3.60
  -3   2  10  142.19    9.40
  -3  -2  10  141.29    7.90
  -5   2  11 1119.89   34.80
  -5  -2  11 1156.98   33.20
   5  -2 -11 1147.49   35.00
  -7   2  12    4.90    1.30
  -7  -2  12   12.70    4.80
   7  -2 -12    7.00    5.40
  -9   2  13   12.00    4.60
  -9  -2  13    7.60    5.10
   9  -2 -13   -2.80    6.20
 -11   2  14  195.58   12.50
 -11  -2  14  211.68   13.60
   9   3   4    1.60   12.00
   9  -3   4   25.10    9.10
   7   3   5   23.70    9.90
   7  -3   5   33.90    5.20
   5   3   6  222.58   14.60
   5  -3   6  227.68   12.90
   3   3   7  165.38   11.60
   3  -3   7  144.09    8.50
   3  -3   7  172.58   10.30
   1   3   8  884.71   29.30
   1  -3   8  854.01   26.70
   1  -3   8  858.71   26.10
  -1   3   9   11.20    5.80
  -1  -3   9    3.60    4.10
  -3   3  10  227.08   12.50
  -3  -3  10  212.48   10.20
  -5   3  11  646.54   21.00
  -5  -3  11  660.73   21.50
   5  -3 -11  664.13   23.70
   7  -3 -12   65.89    9.10
  -7  -3  12   76.59    7.40
  -9  -3  13   89.09    8.50
   9  -3 -13   88.09   12.00
   7   4   5  234.48   17.40
   7  -4   5  235.28   16.40
   5   4   6   43.40   10.10
   5  -4   6   69.49   10.60
   5  -4   6   56.49    7.00
   3   4   7  151.88   12.20
   3  -4   7  145.99    9.00
   3  -4   7  161.28   11.70
   1   4   8   14.60    7.30
   1  -4   8   31.20    6.60
   1  -4   8   16.80    5.20
  -1   4   9   73.89    9.00
  -1  -4   9   62.79    7.10
  -3   4  10  129.89   10.80
  -3  -4  10  120.49    8.60
  -5  -4  11    2.90    5.00
   5  -4 -11    4.10    6.50
   7  -4 -12   18.90    8.20
  -7  -4  12   12.80    5.80
   3   5   7  217.18   15.50
   3  -5   7  234.88   12.10
   1   5   8  187.98   13.90
   1  -5   8  171.78   10.80
  -1   5   9   67.99   10.20
  -1  -5   9   71.49    8.70
  -3   5  10  101.39   11.50
  -3  -5  10   78.99    9.10
  10   0   4  634.94   26.10
   8   0   5    8.00    9.10
   6   0   6   83.09   12.40
   4   0   7   -0.10    7.60
   2   0   8 1077.99   33.70
   0   0   9    4.50    5.80
  -2   0  10 1141.39   33.80
  -4   0  11   -3.80    3.80
  -4   0  11   -2.20    3.10
  -6   0  12  182.68    8.70
  -8   0  13    3.40    4.30
 -10   0  14 1522.05   45.60
 -10   0  14 1517.35   42.90
  10   1   4  356.16   20.80
  10  -1   4  342.47   18.20
   8   1   5   71.59   13.30
   8  -1   5   61.79    5.90
   8  -1   5   79.89   10.60
   6   1   6  329.07   17.70
   6  -1   6  312.87   16.70
   6  -1   6  321.27   11.80
   4   1   7  134.89   11.50
   4  -1   7  130.89   11.60
   4  -1   7  124.49    7.10
   2   1   8   43.80    7.60
   2  -1   8   44.50    5.00
   2  -1   8   41.00    8.90
   0   1   9  996.00   30.80
   0  -1   9  981.70   30.30
   0  -1   9  957.30   28.50
  -2   1  10  611.64   20.50
  -2  -1  10  579.14   19.50
  -2  -1  10  568.34   18.60
  -4   1  11  921.91   28.20
  -4  -1  11  893.61   26.90
  -6   1  12   91.49    6.40
  -6   1  12   87.89    7.70
  -6  -1  12   93.69    7.00
  -8   1  13  371.16   14.70
  -8   1  13  341.27   13.10
  -8  -1  13  359.76   13.90
   8  -1 -13  348.17   14.50
 -10   1  14  349.87   15.70
 -10   1  14  346.77   13.80
 -10  -1  14  335.37   14.10
 -10  -1  14  361.06   16.50
  10   2   4    1.50   12.10
  10  -2   4   28.30    8.30
   8   2   5   70.99   13.40
   8  -2   5   63.09    6.00
   6   2   6 2714.13   76.99
   6  -2   6 2686.93   71.59
   6  -2   6 2628.74   75.39
   4   2   7  119.29   11.30
   4  -2   7  125.59   10.20
   4  -2   7  105.99    6.90
   2   2   8  772.22   26.20
   2  -2   8  692.83   24.20
   2  -2   8  742.53   22.60
   0   2   9  361.06   16.00
   0  -2   9  375.86   13.70
  -2   2  10 1795.62   51.59
  -2  -2  10 1780.42   49.40
  -4   2  11   21.10    6.00
  -4  -2  11   -2.90    3.90
  -6   2  12  128.49    9.50
   6  -2 -12  117.59    9.10
  -6  -2  12  128.69    8.30
  -8   2  13   58.79    6.60
  -8   2  13   58.29    7.50
   8  -2 -13   53.09    7.80
  -8  -2  13   52.89    6.70
 -10  -2  14   35.30    6.60
  10  -2 -14   26.00    8.30
   8   3   5   15.60   11.70
   8  -3   5   70.99   10.90
   6   3   6  212.88   15.30
   6  -3   6  206.68   10.10
   6  -3   6  239.58   14.20
   4   3   7 1454.95   44.90
   4  -3   7 1431.46   40.40
   4  -3   7 1394.16   42.70
   2   3   8  106.69   10.20
   2  -3   8  121.09    8.90
   2  -3   8  109.99    7.80
   0   3   9 1270.27   39.40
   0  -3   9 1240.08   36.30
  -2   3  10    3.00    5.60
  -2  -3  10    7.90    4.40
  -4   3  11   48.50    8.10
  -4  -3  11   39.70    5.90
   6  -3 -12  189.18   11.90
  -6  -3  12  182.98   10.20
  -8  -3  13    8.20    5.60
   8  -3 -13    4.30    7.20
   6   4   6   -1.20    9.30
   6  -4   6   13.70    8.40
   6  -4   6   -4.10    4.60
   4   4   7   10.70    8.30
   4  -4   7   20.80    7.90
   4  -4   7    9.00    5.00
   2   4   8   77.89   10.50
   2  -4   8   64.89    7.10
   0   4   9   59.09    9.80
   0  -4   9   57.89    7.00
  -2   4  10  825.92   29.40
  -2  -4  10  850.81   26.70
  -4   4  11    9.10    6.40
  -4  -4  11    2.90    4.80
  -6  -4  12    4.70    5.50
   6  -4 -12   10.00    7.80
   2   5   8   14.50    9.40
   2  -5   8   27.70    6.30
   0   5   9  288.97   16.90
   0  -5   9  273.17   13.40
  -2   5  10   -0.50    7.30
  -2  -5  10   -0.70    5.90
  11   0   4   32.10   10.10
   9   0   5   56.29   11.70
   7   0   6   -2.30    8.00
   5   0   7  826.82   29.50
   3   0   8   -6.50    7.00
   1   0   9   56.39    9.00
  -1   0  10    1.70    5.60
  -3   0  11  379.26   13.40
  -3   0  11  356.46   14.40
  -5   0  12    0.40    3.60
  -5   0  12   -0.80    4.80
  -7   0  13  133.89    8.30
  -7   0  13  111.49    8.20
  -9   0  14   -0.10    4.70
   9   1   5    4.00   10.50
   9  -1   5    4.70    5.10
   9  -1   5   28.00    8.60
   7   1   6   52.69   11.80
   7  -1   6   60.79   10.50
   7  -1   6   45.00    5.60
   5   1   7   65.89   11.30
   5  -1   7   61.89    6.10
   5  -1   7   68.09   10.80
   3   1   8  495.65   20.10
   3  -1   8  487.65   16.50
   3  -1   8  499.95   20.20
   1   1   9  621.84   22.10
   1  -1   9  598.44   22.00
   1  -1   9  612.54   19.50
  -1   1  10   67.89    7.80
  -1  -1  10   58.59    8.60
  -1  -1  10   72.99    6.20
  -3   1  11  806.22   25.80
  -3  -1  11  764.92   23.90
  -5   1  12    2.50    4.80
  -5  -1  12    3.20    3.70
  -7   1  13  131.79    7.90
  -7   1  13  138.49    9.40
  -7  -1  13  127.79    8.30
  -9   1  14  135.09    8.90
  -9   1  14  161.68   10.20
  -9   1  14  141.39   10.50
  -9  -1  14  119.79    8.90
   9   2   5  330.67   21.40
   9  -2   5  332.17   18.30
   7   2   6   98.19   13.70
   7  -2   6   80.19    7.10
   5   2   7  257.57   15.00
   5  -2   7  275.37   14.20
   5  -2   7  250.17   10.70
   3   2   8  191.28   12.70
   3  -2   8  208.08   12.10
   3  -2   8  204.38    9.50
   1   2   9 2271.57   64.39
   1  -2   9 2173.18   62.39
   1  -2   9 2310.27   61.49
  -1   2  10  182.48   11.50
  -1  -2  10  183.98    9.40
  -3   2  11  635.94   22.40
  -3  -2  11  621.04   20.30
  -5   2  12  231.28   12.50
  -5  -2  12  238.28   11.10
  -7   2  13   68.09    8.60
  -7   2  13   59.79    7.30
  -7  -2  13   54.79    6.90
  -9   2  14   -0.30    1.50
  -9   2  14   -0.10    4.90
  -9  -2  14   -5.70    5.20
   9  -2 -14    3.70    6.70
   7   3   6  103.69   14.60
   7  -3   6   67.59    7.70
   5   3   7   -3.30    8.10
   5  -3   7   25.70    7.00
   5  -3   7   -1.20    4.10
   3   3   8  790.62   28.50
   3  -3   8  759.62   24.10
   3  -3   8  767.72   25.80
   1   3   9   94.19   10.20
   1  -3   9  111.99    8.30
   1  -3   9   97.49    7.70
  -1   3  10  236.78   13.40
  -1  -3  10  230.48   11.00
  -3   3  11  118.69   10.20
  -3  -3  11  113.59    8.20
  -5   3  12  215.18   12.70
  -5  -3  12  203.48   10.80
  -7  -3  13  139.49    9.60
   7  -3 -13  131.39   11.10
   5   4   7   10.30    9.20
   5  -4   7    6.90    5.20
   5  -4   7   24.00    8.40
   3   4   8   11.40    8.30
   3  -4   8   30.30    7.90
   3  -4   8    9.30    5.30
   1   4   9   66.39   10.80
   1  -4   9   74.59    8.00
  -1   4  10   12.60    7.10
  -1  -4  10    1.10    4.80
  -3   4  11  821.12   29.20
  -3  -4  11  798.62   26.00
  -5   4  12   13.90    7.30
  -5  -4  12   10.60    6.10
  10   0   5   11.00    9.70
   8   0   6  271.67   17.90
   6   0   7   -2.30    9.10
   4   0   8   30.40    9.80
   2   0   9   -3.00    6.90
   0   0  10 1930.41   55.19
  -2   0  11    5.70    3.80
  -2   0  11   -4.10    5.30
  -4   0  12  768.02   24.70
  -4   0  12  768.02   23.80
  -6   0  13    0.90    3.90
  -6   0  13   -7.50    5.10
  -8   0  14   51.69    6.70
 -10   0  15    1.00    1.70
 -10   0  15    4.90    5.60
   8   1   6  432.16   23.20
   8  -1   6  477.15   21.60
   8  -1   6  466.15   16.00
   6   1   7  333.67   19.00
   6  -1   7  341.67   13.00
   6  -1   7  353.56   18.10
   4   1   8  342.47   17.40
   4  -1   8  328.87   17.20
   4  -1   8  345.37   13.00
   2   1   9   37.00    8.70
   2  -1   9   39.20    5.30
   2  -1   9   35.30    9.30
   0   1  10 2193.58   60.89
   0  -1  10 2079.39   58.29
   0  -1  10 2123.89   60.09
  -2   1  11  542.75   20.10
  -2  -1  11  545.25   18.20
  -2  -1  11  550.54   21.40
  -4   1  12 1514.65   43.70
  -4  -1  12 1451.25   41.90
  -6   1  13    9.70    4.40
  -6   1  13    6.10    5.60
  -6  -1  13   10.00    4.80
  -8   1  14  153.38   10.40
  -8   1  14  150.88    9.20
  -8  -1  14  146.29    9.40
 -10   1  15   14.20    6.00
 -10   1  15    4.20    1.80
 -10  -1  15   17.30    6.30
 -10  -1  15    6.40    2.00
   8   2   6  543.75   26.70
   8  -2   6  606.94   23.80
   8  -2   6  530.25   18.30
   6   2   7  787.22   30.50
   6  -2   7  788.72   28.20
   6  -2   7  803.22   24.60
   4   2   8  879.61   31.20
   4  -2   8  898.11   26.70
   4  -2   8  855.61   29.20
   2   2   9  803.22   28.20
   2  -2   9  753.42   26.10
   2  -2   9  813.62   24.80
   0   2  10    0.60    5.90
   0  -2  10    6.60    4.00
   0  -2  10   13.70    6.10
  -2   2  11   -0.50    5.60
  -2  -2  11    0.20    3.90
  -4   2  12  134.29   10.30
  -4  -2  12  150.08    8.90
  -6   2  13   18.00    6.90
  -6  -2  13   19.60    5.60
  -8   2  14   97.49    8.30
  -8   2  14   95.89    9.10
  -8   2  14  121.49   10.50
  -8  -2  14   91.59    8.60
   8  -3   6  136.69   13.60
   6   3   7   27.20   10.80
   6  -3   7   32.40    5.80
   4   3   8  464.75   21.30
   4  -3   8  431.66   16.50
   4  -3   8  497.25   19.30
   2   3   9    8.80    7.10
   2  -3   9   13.40    5.20
   0   3  10  300.07   16.10
   0  -3  10  299.67   13.30
   0  -3  10  356.16   13.20
  -2   3  11  510.25   20.70
  -2  -3  11  515.35   18.30
  -4   3  12   24.60    7.70
  -4  -3  12   15.40    5.10
  -6   3  13   38.80    8.10
  -6  -3  13   32.50    6.70
   4   4   8   -1.50    8.80
   4  -4   8    2.00    5.40
   4  -4   8   26.20    8.30
   2   4   9   65.59   11.00
   2  -4   9   71.39    8.00
   0   4  10   27.40    8.50
   0  -4  10   23.20    6.10
  -2   4  11   87.69   10.90
  -2  -4  11   92.19    8.90
  -4   4  12  575.24   23.60
  -4  -4  12  573.94   20.80
   9   0   6    3.80   10.10
   7   0   7  104.29   14.40
   5   0   8   -5.20    9.20
   3   0   9    6.20    8.20
   1   0  10   -6.10    6.70
  -1   0  11 2151.58   59.59
  -1   0  11 2052.49   57.49
  -3   0  12   -7.00    5.30
  -3   0  12    3.70    4.00
  -5   0  13   69.69    7.10
  -5   0  13   67.39    8.00
  -7   0  14   13.40    4.90
  -9   0  15  450.95   16.80
   9   1   6   70.09   15.10
   9  -1   6  121.69   12.60
   7   1   7    2.90   10.50
   7  -1   7    1.70    4.60
   7  -1   7   21.50    8.90
   5   1   8   -7.90    8.90
   5  -1   8    3.00    4.00
   5  -1   8   10.60    8.40
   3   1   9  165.98   12.90
   3  -1   9  160.88   13.40
   3  -1   9  169.28    8.90
   1   1  10  977.20   31.80
   1  -1  10  914.31   31.10
   1  -1  10  961.90   28.70
  -1   1  11   93.29   10.10
  -1  -1  11   82.49   10.10
  -1  -1  11   86.39    7.00
  -3   1  12  357.46   15.70
  -3  -1  12  343.57   13.40
  -5   1  13   -0.50    4.10
  -5   1  13   -2.30    5.70
  -5  -1  13   -5.40    4.00
  -7   1  14   67.89    7.60
  -7   1  14   66.29    8.80
  -7  -1  14   73.69    7.80
  -9   1  15  375.76   15.10
  -9   1  15  382.36   16.70
  -9  -1  15  372.06   15.70
   7   2   7    0.90   10.80
   7  -2   7   11.20    5.20
   5   2   8   -5.10    8.60
   5  -2   8    4.60    4.30
   3   2   9    1.70    8.00
   3  -2   9   22.20    7.30
   3  -2   9    2.80    4.20
   1   2  10   92.29   10.60
   1  -2  10   88.89    7.50
   1  -2  10  114.19    9.70
  -1   2  11  906.41   30.50
  -1  -2  11  912.71   27.80
  -1  -2  11  875.41   28.20
  -3   2  12  202.78   12.40
  -3  -2  12  206.98   10.60
  -5   2  13    1.00    6.20
  -5  -2  13    0.50    4.90
  -7   2  14   51.79    8.70
  -7  -2  14   30.90    6.40
   7   3   7   78.99   15.20
   7  -3   7   70.69    8.30
   5   3   8  363.26   21.10
   5  -3   8  436.36   16.50
   5  -3   8  507.45   19.90
   3   3   9   15.70    8.70
  -1   3  11   12.50    7.50
  -1  -3  11    5.20    5.40
  -3   3  12  115.29   11.00
  -3  -3  12  132.19    9.30
  -5   3  13  103.59   11.30
  -5  -3  13   81.09    8.60
  -7   3  14   87.79   11.90
  -7  -3  14   81.39    9.10
   3   4   9   22.60   10.20
   3  -4   9   10.00    5.80
   1   4  10   75.89   11.70
   1  -4  10   76.39    8.80
  -1   4  11  190.38   14.30
  -1  -4  11  178.38   11.10
  -3   4  12    6.50    7.70
  -3  -4  12   -9.90    5.50
   8   0   7   -3.30   10.40
   6   0   8  150.78   15.70
   4   0   9   -9.20    8.60
   2   0  10  122.19   12.90
   0   0  11    5.10    7.40
  -2   0  12  974.40   30.80
  -2   0  12  945.61   29.00
  -4   0  13    1.50    4.20
  -4   0  13   -4.10    5.70
  -6   0  14  412.56   15.90
  -8   0  15   -0.90    5.50
   8   1   7  289.97   21.50
   8  -1   7  312.07   13.20
   8  -1   7  329.07   18.40
   6   1   8  683.13   28.70
   6  -1   8  672.73   27.20
   6  -1   8  679.63   22.00
   4   1   9   57.49   11.70
   4  -1   9   74.19   11.40
   4  -1   9   60.89    6.60
   2   1  10  707.93   26.60
   2  -1  10  712.43   22.80
   2  -1  10  707.83   26.70
   0   1  11  328.67   16.20
   0  -1  11  308.37   16.20
   0  -1  11  315.07   12.90
  -2   1  12  468.75   19.00
  -2  -1  12  436.46   16.20
  -2  -1  12  448.36   18.40
  -4   1  13   -1.80    5.70
  -4  -1  13    1.20    4.30
  -6   1  14  100.59    9.90
  -6   1  14  119.49    8.50
  -6  -1  14  129.69    9.10
  -8   1  15   64.19    7.60
  -8   1  15   64.89    9.90
  -8  -1  15   62.69    7.90
   8   2   7  103.09   16.90
   8  -2   7   76.49    8.70
   6   2   8  666.33   30.60
   6  -2   8  848.72   29.20
   6  -2   8  796.92   24.80
   4   2   9   70.39   12.10
   4  -2   9   81.79    7.90
   2   2  10  707.53   26.90
   2  -2  10  701.33   22.80
   2  -2  10  679.43   24.60
   0   2  11   11.10    7.70
   0  -2  11   25.00    6.80
   0  -2  11    9.70    5.00
  -2   2  12   22.80    7.70
  -2  -2  12   20.80    5.40
  -4   2  13  104.49   10.40
  -4  -2  13  124.89    8.40
  -6   2  14  133.19   11.50
  -6  -2  14  132.19    9.90
   6   3   8  283.87   20.10
   6  -3   8  338.77   16.90
   6  -3   8  267.47   13.30
   4   3   9   53.79   12.00
   4  -3   9   61.99    7.50
   2   3  10   32.30    9.50
   2  -3  10   43.00    6.70
   0   3  11   65.79   10.50
   0  -3  11   52.99    7.30
  -2   3  12  307.07   16.50
  -2  -3  12  291.27   13.60
  -4   3  13   42.90    8.90
  -4  -3  13   50.79    7.60
  -6   3  14  150.98   13.00
  -6  -3  14  157.28   10.80
   2   4  10   90.89   13.30
   2  -4  10   93.29    9.10
   0   4  11   79.99   12.70
   0  -4  11   81.99    9.00
  -2   4  12   28.40    9.70
  -2  -4  12   20.50    7.10
   7   0   8    2.90   10.90
   5   0   9   -8.30    9.80
   3   0  10    0.00    9.10
   1   0  11  325.87   17.10
  -1   0  12    7.40    4.20
  -1   0  12  -10.70    7.10
  -3   0  13  298.77   15.20
  -3   0  13  320.27   13.20
  -5   0  14   -0.20    4.60
  -7   0  15   -2.00    5.40
   7   1   8   31.90   13.10
   7  -1   8   29.30    6.10
   7  -1   8   40.00   10.50
   5   1   9   -4.50   10.10
   5  -1   9   14.20    9.30
   5  -1   9   -3.00    4.60
   3   1  10   14.40    9.90
   3  -1  10   33.50   10.30
   3  -1  10   48.10    6.40
   1   1  11  145.49   12.50
   1  -1  11  135.49    8.80
   1  -1  11  115.09   12.30
  -1   1  12   68.69   10.60
  -1  -1  12   66.19   10.70
  -3   1  13   58.89    9.50
  -3  -1  13   54.79    9.40
  -3  -1  13   66.69    7.50
  -5   1  14  363.56   14.40
  -5   1  14  346.97   16.40
  -5  -1  14  350.36   14.80
  -7   1  15   -5.20    7.00
  -7   1  15    7.00    5.70
  -7  -1  15    2.30    5.40
   7   2   8    5.20   13.50
   5   2   9  410.36   22.60
   5  -2   9  481.35   20.50
   5  -2   9  432.36   16.50
   3   2  10   14.70    9.70
   3  -2  10   19.20    5.80
   1   2  11  407.96   19.70
   1  -2  11  432.36   17.90
   1  -2  11  418.36   16.30
  -1   2  12  115.99   11.50
  -1  -2  12  114.39    9.00
  -3   2  13   47.50    9.30
  -3  -2  13   58.39    7.70
  -5   2  14   82.49   10.30
  -5  -2  14   65.59    7.80
   5   3   9   98.99   15.30
   5  -3   9  105.89   10.00
   3   3  10   83.89   12.90
   3  -3  10   65.19    8.40
   1   3  11  121.29   13.30
   1  -3  11  138.69   10.10
  -1   3  12    0.20    7.60
  -1  -3  12   -1.60    5.70
  -3   3  13  460.75   20.90
  -3  -3  13  450.65   18.00
  -5   3  14    8.90    8.20
  -5  -3  14   12.90    6.70
   6   0   9   -5.00   11.80
   4   0  10  436.86   22.50
   2   0  11  -10.10    9.40
   0   0  12   66.09   11.00
   0   0  12  110.09    8.00
  -2   0  13  -14.70    7.50
  -2   0  13   -1.50    4.60
  -4   0  14  103.09   11.30
  -4   0  14  126.49    9.20
  -6   0  15    4.00    5.70
   6   1   9  231.38   19.50
   6  -1   9  266.37   18.50
   6  -1   9  237.08   12.40
   4   1  10  109.29   14.70
   4  -1  10  116.49   14.40
   4  -1  10  118.89    9.00
   2   1  11    3.70    9.30
   2  -1  11    9.20    5.50
   2  -1  11    1.40    9.60
   0   1  12  607.54   24.30
   0  -1  12  596.04   23.80
   0  -1  12  585.04   20.50
  -2   1  13   25.10    8.80
  -2  -1  13   15.70    9.00
  -2  -1  13   25.70    5.70
  -4   1  14   45.80    9.10
  -4   1  14   58.39    6.90
  -4  -1  14   51.09    7.30
  -6   1  15   94.99    8.90
  -6   1  15   89.59   10.90
  -6  -1  15   96.19    9.20
   6   2   9  240.48   20.60
   6  -2   9  249.28   12.70
   6  -2   9  304.27   16.90
   4   2  10   65.79   13.10
   4  -2  10   56.59    7.40
   2  -2  11   15.90    5.80
   2  -2  11   25.40    7.80
   0   2  12  485.05   22.10
   0  -2  12  517.05   19.80
   0  -2  12  496.95   18.90
  -2   2  13    8.80    7.90
  -2  -2  13   -2.70    5.30
  -4   2  14   23.30    8.60
  -4  -2  14   24.30    6.40
   2   3  11  280.37   18.40
   2  -3  11  289.87   13.90
   0   3  12    3.00    8.80
   0  -3  12   10.00    6.30
  -2   3  13   16.30    9.20
  -2  -3  13   24.80    7.00
   5   0  10  -14.70   11.40
   3   0  11  660.73   21.80
   3   0  11  601.64   26.80
   1   0  12   -6.20    9.40
   1   0  12    2.30    4.70
  -1   0  13    6.90    9.30
  -1   0  13   20.90    5.90
  -3   0  14    4.20    5.00
  -5   0  15   50.49    7.50
   5   1  10  186.18   18.40
   5  -1  10  214.48   16.70
   5  -1  10  215.18   11.70
   3   1  11   28.60   11.70
   3  -1  11   29.10    6.60
   3  -1  11   35.70   11.50
   1   1  12   78.69   12.40
   1  -1  12   79.69   13.60
   1  -1  12   97.09    8.70
  -1   1  13  106.59   13.10
  -1  -1  13  102.69   12.90
  -1  -1  13   92.59    8.80
  -3   1  14   76.29   11.00
  -3  -1  14   65.99    8.10
  -5   1  15    2.40    5.40
  -5   1  15   -8.80    7.60
  -5  -1  15   -4.90    5.80
   3   2  11   67.19   13.40
   3  -2  11   79.79    8.80
   1   2  12  188.98   16.10
   1  -2  12  221.18   12.60
   1  -2  12  271.77   14.60
  -1   2  13  258.47   17.40
  -1  -2  13  275.67   13.60
  -3   2  14   -9.80    7.30
  -3  -2  14    1.50    5.80
   4   0  11    0.60    5.40
   4   0  11   -8.50   12.10
   2   0  12 1233.78   41.70
   2   0  12 1199.18   36.60
   0   0  13   68.69    8.80
  -2   0  14   87.79    9.10
  -2   0  14   91.79   12.70
  -4   0  15    2.00    5.80
   4   1  11   15.40   12.60
   4  -1  11   39.90   12.40
   4  -1  11   43.20    7.40
   2   1  12  -10.60   10.50
   2  -1  12   -4.00    5.40
   2  -1  12   -2.70   10.60
   0   1  13   53.79   12.00
   0  -1  13   60.99    7.80
   0  -1  13   49.40   12.20
  -2   1  14  -10.80    8.70
  -2  -1  14    7.30    5.80
  -4   1  15    7.70    9.20
  -4   1  15   22.10    6.60
  -4  -1  15   10.90    6.30
   2   2  12  158.68   16.40
   2  -2  12  190.08   12.10
   0  -2  13   17.40    6.80
  -2   2  14   38.60   10.70
  -2  -2  14   36.50    7.40
   3   0  12  -18.40   12.00
   3   0  12    0.50    5.90
   1   0  13  396.36   16.90
   1   0  13  388.66   21.90
  -1   0  14   -1.30    5.90
  -3   0  15  789.22   26.60
  -3   0  15  788.52   34.20
   1   1  13  419.46   22.40
   1  -1  13  463.85   18.50
   1  -1  13  440.66   22.70
  -1   1  14  782.82   29.40
  -1  -1  14  718.03   25.40
   0   0   0    0.00    0.00

_computing_structure_solution     'SHELXT 2014/5 (Sheldrick, 2014)'
;
_shelx_hkl_checksum              97948
loop_
_space_group_symop_operation_xyz
'x, y, z'
'-x+1/2, y+1/2, -z+1/2'
'-x, -y, -z'
'x-1/2, -y-1/2, z-1/2'
loop_
_atom_site_label
_atom_site_type_symbol
_atom_site_fract_x
_atom_site_fract_y
_atom_site_fract_z
_atom_site_U_iso_or_equiv
_atom_site_adp_type
_atom_site_occupancy
_atom_site_site_symmetry_order
_atom_site_calc_flag
_atom_site_refinement_flags_posn
_atom_site_refinement_flags_adp
O1 O 0.12454(11) 0.7536(3) 0.32962(11) 0.0354(4) Uani 1 1 d . .
O2 O 0.07958(11) 1.0223(2) 0.17145(10) 0.0230(4) Uani 1 1 d . .
O3 O 0.13717(11) 0.6300(2) 0.15842(12) 0.0285(4) Uani 1 1 d . .
O4 O 0.32788(10) 0.8073(2) 0.62467(11) 0.0326(4) Uani 1 1 d . .
O5 O 0.17779(11) 0.50700(19) 0.58240(11) 0.0222(4) Uani 1 1 d . .
O6 O 0.14592(11) 0.8900(2) 0.63559(11) 0.0269(4) Uani 1 1 d . .
C1 C 0.11433(14) 0.7975(3) 0.22862(15) 0.0233(5) Uani 1 1 d . .
C2 C 0.07171(17) 1.0059(3) 0.04822(15) 0.0207(4) Uani 1 1 d . .
H2 H 0.114794 1.154337 0.032276 0.025 Uiso 1 1 calc R U
C3 C 0.14528(16) 0.7649(3) 0.05776(16) 0.0279(5) Uani 1 1 d . .
H3A H 0.103724 0.668142 -0.021855 0.033 Uiso 1 1 calc R U
H3B H 0.236624 0.800594 0.079482 0.033 Uiso 1 1 calc R U
C4 C 0.22629(15) 0.7418(3) 0.61506(14) 0.0226(4) Uani 1 1 d . .
C5 C 0.04864(16) 0.4993(3) 0.57027(15) 0.0189(4) Uani 1 1 d . .
H5 H 0.037095 0.345317 0.611930 0.023 Uiso 1 1 calc R U
C6 C 0.04523(16) 0.7369(3) 0.63910(15) 0.0248(5) Uani 1 1 d . .
H6A H -0.040398 0.821199 0.595275 0.030 Uiso 1 1 calc R U
H6B H 0.065048 0.698909 0.726664 0.030 Uiso 1 1 calc R U
loop_
_atom_site_aniso_label
_atom_site_aniso_U_11
_atom_site_aniso_U_22
_atom_site_aniso_U_33
_atom_site_aniso_U_23
_atom_site_aniso_U_13
_atom_site_aniso_U_12
O1 0.0287(8) 0.0541(9) 0.0219(7) 0.0120(6) 0.0108(6) 0.0021(6)
O2 0.0275(7) 0.0233(7) 0.0152(7) 0.0000(4) 0.0077(6) 0.0003(4)
O3 0.0288(7) 0.0249(7) 0.0309(8) 0.0089(5) 0.0133(6) 0.0079(5)
O4 0.0225(7) 0.0443(8) 0.0297(8) -0.0052(6) 0.0112(6) -0.0098(5)
O5 0.0197(7) 0.0217(7) 0.0245(7) -0.0003(4) 0.0098(6) 0.0022(4)
O6 0.0290(8) 0.0215(7) 0.0302(7) -0.0051(5) 0.0139(6) -0.0032(5)
C1 0.0157(8) 0.0297(9) 0.0203(9) 0.0045(7) 0.0050(7) -0.0007(6)
C2 0.0243(10) 0.0209(8) 0.0166(9) 0.0002(5) 0.0094(8) -0.0037(6)
C3 0.0297(10) 0.0309(9) 0.0245(10) 0.0034(7) 0.0140(8) 0.0043(7)
C4 0.0223(9) 0.0276(9) 0.0155(8) 0.0012(6) 0.0069(7) -0.0003(7)
C5 0.0169(9) 0.0198(8) 0.0188(9) 0.0031(5) 0.0074(7) 0.0014(5)
C6 0.0248(9) 0.0267(9) 0.0252(9) -0.0007(7) 0.0137(8) 0.0011(6)
loop_
_atom_type_symbol
_atom_type_description
_atom_type_scat_dispersion_real
_atom_type_scat_dispersion_imag
_atom_type_scat_source
C C 0.0033 0.0016 'International Tables Vol C Tables 4.2.6.8 and 6.1.1.4'
H H 0.0000 0.0000 'International Tables Vol C Tables 4.2.6.8 and 6.1.1.4'
O O 0.0106 0.0060 'International Tables Vol C Tables 4.2.6.8 and 6.1.1.4'
loop_
_geom_angle_atom_site_label_1
_geom_angle_atom_site_label_2
_geom_angle_atom_site_label_3
_geom_angle
_geom_angle_site_symmetry_1
_geom_angle_site_symmetry_3
C1 O2 C2 109.40(11) . .
C1 O3 C3 108.44(13) . .
C4 O5 C5 109.31(11) . .
C4 O6 C6 109.28(12) . .
O1 C1 O3 124.48(16) . .
O1 C1 O2 124.08(16) . .
O3 C1 O2 111.43(13) . .
O2 C2 C3 102.42(12) . .
O2 C2 C2 107.39(15) . 3_575
C3 C2 C2 113.83(16) . 3_575
O2 C2 H2 110.9 . .
C3 C2 H2 110.9 . .
C2 C2 H2 110.9 3_575 .
O3 C3 C2 102.63(11) . .
O3 C3 H3A 111.2 . .
C2 C3 H3A 111.2 . .
O3 C3 H3B 111.2 . .
C2 C3 H3B 111.2 . .
H3A C3 H3B 109.2 . .
O4 C4 O6 124.68(16) . .
O4 C4 O5 124.12(15) . .
O6 C4 O5 111.20(13) . .
O5 C5 C6 102.58(12) . .
O5 C5 C5 107.71(15) . 3_566
C6 C5 C5 113.84(16) . 3_566
O5 C5 H5 110.8 . .
C6 C5 H5 110.8 . .
C5 C5 H5 110.8 3_566 .
O6 C6 C5 102.45(11) . .
O6 C6 H6A 111.3 . .
C5 C6 H6A 111.3 . .
O6 C6 H6B 111.3 . .
C5 C6 H6B 111.3 . .
H6A C6 H6B 109.2 . .
loop_
_geom_bond_atom_site_label_1
_geom_bond_atom_site_label_2
_geom_bond_distance
_geom_bond_site_symmetry_2
O1 C1 1.1907(18) .
O2 C1 1.339(2) .
O2 C2 1.4494(18) .
O3 C1 1.338(2) .
O3 C3 1.4509(19) .
O4 C4 1.1892(19) .
O5 C4 1.345(2) .
O5 C5 1.4470(19) .
O6 C4 1.3346(19) .
O6 C6 1.4465(19) .
C2 C3 1.512(2) .
C2 C2 1.524(3) 3_575
C2 H2 1.0000 .
C3 H3A 0.9900 .
C3 H3B 0.9900 .
C5 C6 1.518(2) .
C5 C5 1.532(3) 3_566
C5 H5 1.0000 .
C6 H6A 0.9900 .
C6 H6B 0.9900 .
loop_
_geom_torsion_atom_site_label_1
_geom_torsion_atom_site_label_2
_geom_torsion_atom_site_label_3
_geom_torsion_atom_site_label_4
_geom_torsion
_geom_torsion_site_symmetry_1
_geom_torsion_site_symmetry_4
C3 O3 C1 O1 -166.49(15) . .
C3 O3 C1 O2 12.93(18) . .
C2 O2 C1 O1 -177.66(14) . .
C2 O2 C1 O3 2.92(18) . .
C1 O2 C2 C3 -16.43(16) . .
C1 O2 C2 C2 103.74(16) . 3_575
C1 O3 C3 C2 -22.24(17) . .
O2 C2 C3 O3 22.58(16) . .
C2 C2 C3 O3 -93.01(18) 3_575 .
C6 O6 C4 O4 -168.99(15) . .
C6 O6 C4 O5 10.76(17) . .
C5 O5 C4 O4 -175.53(14) . .
C5 O5 C4 O6 4.71(17) . .
C4 O5 C5 C6 -16.98(16) . .
C4 O5 C5 C5 103.41(16) . 3_566
C4 O6 C6 C5 -20.52(16) . .
O5 C5 C6 O6 21.85(15) . .
C5 C5 C6 O6 -94.21(18) 3_566 .
loop_
_cod_related_entry_id
_cod_related_entry_database
_cod_related_entry_code
1 PubChem 168339080
