#------------------------------------------------------------------------------
#$Date: 2022-05-05 23:37:56 +0300 (Thu, 05 May 2022) $
#$Revision: 274992 $
#$URL: file:///home/coder/svn-repositories/cod/cif/7/24/45/7244544.cif $
#------------------------------------------------------------------------------
#
# This file is available in the Crystallography Open Database (COD),
# http://www.crystallography.net/
#
# All data on this site have been placed in the public domain by the
# contributors.
#
data_7244544
loop_
_publ_author_name
'Sengoden, Mani'
'Bhat, Gulzar A.'
'Darensbourg, Donald J.'
_publ_section_title
;
 Explorations into the sustainable synthesis of cyclic and polymeric
 carbonates and thiocarbonates from eugenol-derived monomers and their
 reactions with CO2, COS, or CS2
;
_journal_issue                   6
_journal_name_full               'Green Chemistry'
_journal_page_first              2535
_journal_page_last               2541
_journal_paper_doi               10.1039/D2GC00327A
_journal_volume                  24
_journal_year                    2022
_chemical_absolute_configuration unk
_chemical_formula_moiety         'C16 H20 O6'
_chemical_formula_sum            'C16 H20 O6'
_chemical_formula_weight         308.32
_space_group_crystal_system      monoclinic
_space_group_IT_number           4
_space_group_name_Hall           'P 2yb'
_space_group_name_H-M_alt        'P 1 21 1'
_atom_sites_solution_hydrogens   geom
_atom_sites_solution_primary     dual
_audit_block_doi                 10.5517/ccdc.csd.cc29yg7z
_audit_creation_date             2021-10-11
_audit_creation_method
;
Olex2 1.5
(compiled 2021.08.20 svn.r13c46975 for OlexSys, GUI svn.r6405)
;
_audit_update_record
;
2022-01-20 deposited with the CCDC.	2022-02-18 downloaded from the CCDC.
;
_cell_angle_alpha                90
_cell_angle_beta                 109.9210(10)
_cell_angle_gamma                90
_cell_formula_units_Z            2
_cell_length_a                   10.8206(5)
_cell_length_b                   6.2424(3)
_cell_length_c                   12.0066(5)
_cell_measurement_reflns_used    9668
_cell_measurement_temperature    110.00
_cell_measurement_theta_max      70.135
_cell_measurement_theta_min      3.916
_cell_volume                     762.48(6)
_computing_cell_refinement       'SAINT V8.40A (Bruker, 2019)'
_computing_data_reduction        'SAINT V8.40A (Bruker, 2019)'
_computing_molecular_graphics    'Olex2 1.5 (Dolomanov et al., 2009)'
_computing_publication_material  'Olex2 1.5 (Dolomanov et al., 2009)'
_computing_structure_refinement  'SHELXL 2018/3 (Sheldrick, 2015)'
_computing_structure_solution    'SHELXT 2018/2 (Sheldrick, 2018)'
_diffrn_ambient_temperature      110.00
_diffrn_measured_fraction_theta_full 0.997
_diffrn_measured_fraction_theta_max 0.996
_diffrn_measurement_device_type  'Bruker Venture (PHOTON III)'
_diffrn_measurement_method       '\f and \w scans'
_diffrn_radiation_type           CuK\a
_diffrn_radiation_wavelength     1.54178
_diffrn_reflns_av_R_equivalents  0.0248
_diffrn_reflns_av_unetI/netI     0.0185
_diffrn_reflns_Laue_measured_fraction_full 0.997
_diffrn_reflns_Laue_measured_fraction_max 0.996
_diffrn_reflns_limit_h_max       13
_diffrn_reflns_limit_h_min       -13
_diffrn_reflns_limit_k_max       7
_diffrn_reflns_limit_k_min       -7
_diffrn_reflns_limit_l_max       14
_diffrn_reflns_limit_l_min       -14
_diffrn_reflns_number            19407
_diffrn_reflns_point_group_measured_fraction_full 0.972
_diffrn_reflns_point_group_measured_fraction_max 0.969
_diffrn_reflns_theta_full        67.679
_diffrn_reflns_theta_max         70.157
_diffrn_reflns_theta_min         3.916
_diffrn_source_current           1.0
_diffrn_source_power             0.05
_diffrn_source_voltage           50.0
_diffrn_standards_number         0
_exptl_absorpt_coefficient_mu    0.859
_exptl_absorpt_correction_T_max  0.5856
_exptl_absorpt_correction_T_min  0.4507
_exptl_absorpt_correction_type   multi-scan
_exptl_absorpt_process_details
;
SADABS-2016/2 (Bruker,2016/2) was used for absorption correction.
wR2(int) was 0.1077 before and 0.0562 after correction.
The Ratio of minimum to maximum transmission is 0.7696.
The \l/2 correction factor is Not present.
;
_exptl_crystal_colour            colourless
_exptl_crystal_colour_primary    colourless
_exptl_crystal_density_diffrn    1.343
_exptl_crystal_description       block
_exptl_crystal_F_000             328
_exptl_crystal_size_max          0.508
_exptl_crystal_size_mid          0.262
_exptl_crystal_size_min          0.143
_refine_diff_density_max         0.173
_refine_diff_density_min         -0.160
_refine_diff_density_rms         0.038
_refine_ls_abs_structure_details
;
 Refined as an inversion twin.
;
_refine_ls_abs_structure_Flack   0.5(2)
_refine_ls_extinction_method     none
_refine_ls_goodness_of_fit_ref   1.057
_refine_ls_hydrogen_treatment    constr
_refine_ls_matrix_type           full
_refine_ls_number_parameters     204
_refine_ls_number_reflns         2814
_refine_ls_number_restraints     1
_refine_ls_restrained_S_all      1.057
_refine_ls_R_factor_all          0.0322
_refine_ls_R_factor_gt           0.0308
_refine_ls_shift/su_max          0.000
_refine_ls_shift/su_mean         0.000
_refine_ls_structure_factor_coef Fsqd
_refine_ls_weighting_details
'w=1/[\s^2^(Fo^2^)+(0.0485P)^2^+0.1855P] where P=(Fo^2^+2Fc^2^)/3'
_refine_ls_weighting_scheme      calc
_refine_ls_wR_factor_gt          0.0793
_refine_ls_wR_factor_ref         0.0802
_reflns_Friedel_coverage         0.772
_reflns_Friedel_fraction_full    0.942
_reflns_Friedel_fraction_max     0.937
_reflns_number_gt                2774
_reflns_number_total             2814
_reflns_threshold_expression     'I > 2\s(I)'
_cod_data_source_file            d2gc00327a2.cif
_cod_data_source_block           3
_cod_depositor_comments
'Adding full bibliography for 7244542--7244545.cif.'
_cod_database_code               7244544
_shelx_shelxl_version_number     2018/3
_shelx_space_group_comment
;
The symmetry employed for this shelxl refinement is uniquely defined
by the following loop, which should always be used as a source of
symmetry information in preference to the above space-group names.
They are only intended as comments.
;
_shelx_estimated_absorpt_t_max   0.887
_shelx_estimated_absorpt_t_min   0.669
_olex2_refinement_description
;
1. Twinned data refinement
 Scales: 0.5(2)
 0.5(2)
2. Fixed Uiso
 At 1.2 times of:
  All C(H) groups, All C(H,H) groups
 At 1.5 times of:
  All C(H,H,H) groups
3.a Ternary CH refined with riding coordinates:
 C8(H8)
3.b Secondary CH2 refined with riding coordinates:
 C7(H7A,H7B), C10(H10A,H10B)
3.c Aromatic/amide H refined with riding coordinates:
 C2(H2), C6(H6), C5(H5)
3.d Idealised Me refined as rotating group:
 C11(H11A,H11B,H11C), C16(H16A,H16B,H16C), C14(H14A,H14B,H14C), C15(H15A,H15B,
 H15C)
;
_shelx_res_file
;
TITL msn01_a.res in P2(1)
    msn01.res
    created by SHELXL-2018/3 at 08:34:12 on 11-Oct-2021
REM Old TITL MSN01 in P2(1)
REM SHELXT solution in P2(1): R1 0.096, Rweak 0.028, Alpha 0.003
REM <I/s> 0.988 for 4 systematic absences, Orientation as input
REM Flack x = 0.064 ( 0.121 ) from 1213 Parsons' quotients
REM Formula found by SHELXT: C16 O6
CELL 1.54178 10.8206 6.2424 12.0066 90 109.921 90
ZERR 2 0.0005 0.0003 0.0005 0 0.001 0
LATT -1
SYMM -X,0.5+Y,-Z
SFAC C H O
UNIT 32 40 12

L.S. 8
PLAN  5
SIZE 0.143 0.262 0.508
TEMP -163.15
CONF
acta
wpdb -1
htab
list 4
fmap 2 53
MORE -1
BOND $H
TWIN -1 0 0 0 -1 0 0 0 -1 2
OMIT -4 -3 6
REM <olex2.extras>
REM <HklSrc "%.\\MSN01.hkl">
REM </olex2.extras>

WGHT    0.048500    0.185500
BASF   0.46544
FVAR       1.09238
O5    3    0.454827    0.320219    0.737716    11.00000    0.02019    0.01976 =
         0.01753    0.00091    0.00180   -0.00152
O4    3    0.389692    0.051399    0.557751    11.00000    0.02362    0.02158 =
         0.02078   -0.00365    0.00340    0.00400
O6    3    0.362288    0.046579    0.803996    11.00000    0.02307    0.02938 =
         0.02377    0.00378    0.00824   -0.00196
O1    3    0.067738    0.812261    0.262554    11.00000    0.03288    0.01981 =
         0.02015    0.00086   -0.00003   -0.00471
O2    3   -0.068691    0.812291    0.076869    11.00000    0.03230    0.02388 =
         0.02022    0.00445    0.00072   -0.00121
O3    3    0.031584    1.116449    0.156975    11.00000    0.06223    0.01838 =
         0.03099    0.00198    0.01049   -0.00273
C3    1    0.305687    0.218552    0.546262    11.00000    0.02021    0.01701 =
         0.02115    0.00125    0.00814   -0.00031
C4    1    0.337236    0.357519    0.643802    11.00000    0.01807    0.02285 =
         0.01592    0.00155    0.00317   -0.00094
C1    1    0.117963    0.442093    0.446392    11.00000    0.01820    0.02175 =
         0.01894    0.00376    0.00578    0.00002
C2    1    0.195247    0.261971    0.448053    11.00000    0.02225    0.02053 =
         0.01668   -0.00190    0.00584   -0.00315
AFIX  43
H2    2    0.172152    0.168592    0.381627    11.00000   -1.20000
AFIX   0
C12   1    0.459255    0.141381    0.805446    11.00000    0.02310    0.02024 =
         0.01573   -0.00133    0.00664    0.00105
C9    1    0.011593    0.930026    0.165037    11.00000    0.02920    0.02039 =
         0.02034    0.00097    0.00670    0.00050
C7    1   -0.001253    0.487466    0.337445    11.00000    0.02063    0.02453 =
         0.02049    0.00291    0.00476    0.00167
AFIX  23
H7A   2   -0.049108    0.351786    0.309389    11.00000   -1.20000
H7B   2   -0.061084    0.585443    0.359496    11.00000   -1.20000
AFIX   0
C10   1   -0.078948    0.598491    0.119686    11.00000    0.02663    0.02314 =
         0.01992    0.00190    0.00387   -0.00263
AFIX  23
H10A  2   -0.069337    0.488696    0.063698    11.00000   -1.20000
H10B  2   -0.164418    0.577865    0.131379    11.00000   -1.20000
AFIX   0
C13   1    0.600171    0.077102    0.876813    11.00000    0.02017    0.02249 =
         0.02186    0.00324    0.00403    0.00133
C8    1    0.034499    0.586934    0.237332    11.00000    0.02077    0.01741 =
         0.02086   -0.00077    0.00578   -0.00001
AFIX  13
H8    2    0.110399    0.508654    0.226806    11.00000   -1.20000
AFIX   0
C11   1    0.372262   -0.076424    0.454387    11.00000    0.02777    0.02289 =
         0.02700   -0.00669    0.00806    0.00281
AFIX 137
H11A  2    0.377041    0.015362    0.389760    11.00000   -1.50000
H11B  2    0.286230   -0.146866    0.430659    11.00000   -1.50000
H11C  2    0.441592   -0.185196    0.472043    11.00000   -1.50000
AFIX   0
C6    1    0.152304    0.578536    0.543214    11.00000    0.02586    0.02363 =
         0.02241    0.00083    0.00751    0.00582
AFIX  43
H6    2    0.100292    0.701701    0.542003    11.00000   -1.20000
AFIX   0
C5    1    0.263056    0.536179    0.642760    11.00000    0.02919    0.02301 =
         0.01858   -0.00380    0.00654    0.00088
AFIX  43
H5    2    0.286616    0.630191    0.708926    11.00000   -1.20000
AFIX   0
C16   1    0.699078    0.256559    0.889477    11.00000    0.02080    0.02689 =
         0.03631    0.00118   -0.00208   -0.00138
AFIX 137
H16A  2    0.700282    0.297050    0.810993    11.00000   -1.50000
H16B  2    0.786709    0.207469    0.938695    11.00000   -1.50000
H16C  2    0.673981    0.380807    0.926904    11.00000   -1.50000
AFIX   0
C14   1    0.631619   -0.111625    0.809124    11.00000    0.02601    0.03058 =
         0.04844   -0.01208    0.00226    0.00593
AFIX 137
H14A  2    0.568018   -0.227015    0.802198    11.00000   -1.50000
H14B  2    0.720487   -0.164188    0.852084    11.00000   -1.50000
H14C  2    0.626446   -0.064252    0.729842    11.00000   -1.50000
AFIX   0
C15   1    0.605891    0.003962    1.000244    11.00000    0.03287    0.07237 =
         0.03348    0.02819    0.00768    0.01172
AFIX 137
H15A  2    0.592408    0.127499    1.045157    11.00000   -1.50000
H15B  2    0.692023   -0.059950    1.041926    11.00000   -1.50000
H15C  2    0.536903   -0.102459    0.992622    11.00000   -1.50000
AFIX   0
HKLF 4




REM  msn01_a.res in P2(1)
REM wR2 = 0.0802, GooF = S = 1.057, Restrained GooF = 1.057 for all data
REM R1 = 0.0308 for 2774 Fo > 4sig(Fo) and 0.0322 for all 2814 data
REM 204 parameters refined using 1 restraints

END

WGHT      0.0486      0.1856

REM Instructions for potential hydrogen bonds
EQIV $1 x, y-1, z
HTAB C2 O3_$1
HTAB C10 O3_$1
EQIV $2 -x, y+1/2, -z+1
HTAB C10 O6_$2
HTAB C11 O1_$1
EQIV $3 -x+1, y-1/2, -z+1
HTAB C11 O4_$3

REM Highest difference peak  0.173,  deepest hole -0.160,  1-sigma level  0.038
Q1    1   0.0074  0.5306  0.2800  11.00000  0.05    0.17
Q2    1  -0.0206  0.8416  0.2768  11.00000  0.05    0.17
Q3    1   0.5792 -0.0815  0.9455  11.00000  0.05    0.17
Q4    1   0.6458  0.1684  0.8743  11.00000  0.05    0.15
Q5    1   0.1618  0.5379  0.4824  11.00000  0.05    0.14
;
_shelx_res_checksum              40968
_shelx_hkl_file
;
   1   0   0   67.49    2.40
  -1   0   0   71.19    2.50
  -1   0   0   67.99    2.40
  -1   0   0   67.09    2.40
   1   0   0   66.49    2.40
  -1   0   0   71.39    2.50
  -2   0   0 2758.22   89.79
  -2   0   0 2588.24   89.29
   2   0   0 2605.14   89.29
   2   0   0 2763.02   89.39
  -2   0   0 2794.32   89.39
  -2   0   0 2615.04   89.29
   3   0   0 5461.45  180.68
  -3   0   0 5415.56  180.58
  -4   0   0  743.43   25.90
  -4   0   0  779.12   26.20
   4   0   0  790.32   26.30
  -4   0   0  772.32   26.40
  -4   0   0  793.72   26.30
   4   0   0  774.72   26.30
  -4   0   0  755.32   26.10
  -5   0   0  192.78    7.40
   5   0   0  193.08    7.20
  -5   0   0  198.98    7.20
  -5   0   0  187.88    6.80
  -5   0   0  188.58    7.10
   5   0   0  189.28    7.20
  -6   0   0    3.00    0.60
   6   0   0    2.50    0.70
   6   0   0    1.90    0.50
  -6   0   0    3.90    1.00
   6   0   0    2.90    0.80
  -6   0   0    3.40    0.90
   7   0   0   33.10    1.60
  -7   0   0   34.80    2.00
  -7   0   0   37.80    2.70
   7   0   0   39.30    2.60
   7   0   0   33.50    2.10
   7   0   0   33.30    2.50
   8   0   0    3.50   15.50
  -8   0   0   -0.30    1.50
   8   0   0    2.40    1.70
   8   0   0   -1.80    1.90
   8   0   0    0.30    0.90
   9   0   0   18.40   21.30
   9   0   0   59.59    2.20
  -9   0   0   61.49    3.10
   9   0   0   57.89    2.60
  -9   0   0   59.59    2.60
  -9   0   0   56.79    2.60
  10   0   0    0.70    0.40
  10   0   0    1.30    0.40
 -10   0   0    0.50    0.20
 -10   0   0    0.70    0.20
 -10   0   0    0.90    0.30
 -11   0   0   81.69    4.10
 -11   0   0   81.89    3.30
  11   0   0   86.29    3.30
 -11   0   0   84.49    3.30
 -12   0   0   53.09    2.50
  12   0   0   59.09    2.20
 -12   0   0   59.69    2.20
 -12   0   0   57.89    2.30
   0  -1   0    0.00    0.20
   0  -1   0    0.00    0.20
   1  -1   0  856.01   28.20
  -1  -1   0  828.82   28.10
   1  -1   0  827.02   28.00
   1  -1   0  821.02   27.90
   1  -1   0  831.42   28.10
  -1  -1   0  816.62   28.40
   1  -1   0  858.81   28.00
  -1  -1   0  875.31   28.30
  -1   1   0  805.12   27.80
  -1   1   0  838.02   27.50
   1   1   0  837.82   27.70
   2  -1   0  248.08    8.40
  -2  -1   0  247.78    8.60
  -2  -1   0  248.68    8.60
   2  -1   0  246.18    8.50
  -2  -1   0  251.17    8.60
  -2  -1   0  242.78    8.90
  -2  -1   0  246.48    8.50
   2   1   0  243.58    8.50
  -2   1   0  241.08    8.30
   2   1   0  245.18    8.50
  -2   1   0  241.88    8.50
  -2   1   0  244.68    8.60
  -3  -1   0  669.63   23.30
   3  -1   0  666.33   22.70
  -3  -1   0  702.33   23.00
   3  -1   0  677.13   22.90
  -3  -1   0  671.73   22.80
  -3  -1   0  659.23   22.80
  -3   1   0  668.03   22.80
  -3   1   0  729.63   23.80
  -3   1   0  663.93   23.10
   3   1   0  651.33   23.10
   3   1   0  665.53   22.90
   4  -1   0  342.07   11.70
   4  -1   0  329.17   11.50
  -4  -1   0  320.27   11.60
  -4  -1   0  326.37   11.50
  -4  -1   0  335.07   12.10
  -4  -1   0  339.17   11.90
  -4   1   0  323.47   11.80
   4   1   0  324.67   11.60
  -4   1   0  330.57   11.50
  -4   1   0  333.17   11.70
  -4   1   0  332.27   11.70
   4   1   0  327.87   11.70
  -5  -1   0   24.10    1.70
  -5  -1   0   23.90    1.80
  -5  -1   0   22.20    1.40
  -5  -1   0   22.20    1.40
   5  -1   0   21.70    1.40
   5  -1   0   24.90    1.70
  -5   1   0   23.10    1.50
   5   1   0   23.90    1.90
   5   1   0   25.80    1.70
  -5   1   0   24.80    1.70
  -5   1   0   24.40    1.50
  -5   1   0   25.00    1.70
  -5   1   0   24.30    1.70
  -5   1   0   22.80    1.10
  -6  -1   0  380.36   13.80
  -6  -1   0  383.06   13.10
  -6  -1   0  392.76   14.00
   6  -1   0  351.16   13.20
  -6  -1   0  351.96   13.10
   6  -1   0  360.86   13.20
   6  -1   0  389.36   13.60
   6   1   0  373.06   13.50
   6   1   0  346.07   13.10
  -6   1   0  379.76   13.60
   6   1   0  367.46   12.50
   6   1   0  366.46   12.60
   6   1   0  369.46   13.40
  -6   1   0  375.56   13.30
  -6   1   0  384.36   13.60
  -6   1   0  369.26   12.60
  -6   1   0  363.26   12.50
  -7  -1   0  143.99    6.60
   7  -1   0  144.89    5.80
  -7  -1   0  149.88    5.70
   7  -1   0  145.89    6.30
   7  -1   0  132.69    6.20
   7   1   0  142.69    5.20
   7   1   0  146.39    6.30
  -7   1   0  139.79    6.40
   7   1   0  141.49    5.20
   7   1   0  149.69    6.30
  -7   1   0  141.19    5.80
   7   1   0  145.39    5.10
  -7   1   0  143.09    6.20
   7   1   0  144.39    5.90
   8  -1   0  254.27   10.50
   8  -1   0  243.98    9.60
  -8  -1   0  262.67    9.60
  -8  -1   0  260.57   10.90
  -8  -1   0  271.97   12.50
   8   1   0  258.87    9.10
   8   1   0  249.48   10.50
   8   1   0  239.88   10.30
  -8   1   0  264.07   11.80
  -8   1   0  247.38   10.60
  -8   1   0  272.07    9.90
   8   1   0  261.27    9.00
   8   1   0  273.27    9.00
   9  -1   0    0.10    0.20
  -9  -1   0    0.40    0.20
  -9  -1   0    0.40    0.20
  -9  -1   0    0.20    0.20
   9  -1   0    0.50    0.40
   9  -1   0    1.30    0.40
   9   1   0   31.10   16.60
 -10  -1   0   53.49    2.60
 -10  -1   0   49.80    2.30
  10  -1   0   51.09    2.20
  10  -1   0   51.19    2.30
 -10  -1   0   50.89    2.20
 -10  -1   0   50.39    2.20
 -10   1   0   51.59    2.30
 -10   1   0   52.89    2.40
  10   1   0   52.69    2.40
  10   1   0   51.79    2.00
 -10   1   0   54.59    2.20
  10   1   0   54.19    2.20
 -10   1   0   51.99    2.80
  11  -1   0    3.50    0.60
 -11  -1   0    3.90    0.50
 -11  -1   0    3.20    0.50
  11  -1   0    3.80    0.60
 -11  -1   0    3.60    0.80
  11   1   0    4.70    0.40
 -11   1   0    4.20    0.60
 -11   1   0    3.20    0.60
  11   1   0    3.70    0.60
 -11   1   0    4.00    0.90
 -12  -1   0    9.10    0.50
 -12  -1   0    8.90    0.60
 -12  -1   0    8.50    0.80
  12   1   0    9.20    0.60
 -12   1   0    8.40    0.60
 -12   1   0    9.00    0.60
   0  -2   0  666.23   22.80
   0  -2   0  664.93   22.60
   0  -2   0  672.23   23.00
   0   2   0  675.53   23.10
   0   2   0  708.43   23.60
   0   2   0  685.43   23.30
   1  -2   0   50.29    2.00
  -1  -2   0   51.89    2.30
  -1  -2   0   49.80    2.50
  -1  -2   0   48.80    2.20
   1  -2   0   47.80    2.20
  -1   2   0   49.20    1.90
  -1   2   0   49.70    2.10
  -1   2   0   48.40    2.30
   1   2   0   48.70    2.00
  -2  -2   0  218.68    7.70
   2  -2   0  212.28    7.40
  -2  -2   0  206.68    8.00
  -2  -2   0  217.78    8.20
   2  -2   0  216.88    7.70
   2   2   0  215.68    7.60
   2   2   0  225.48    8.00
  -2   2   0  219.38    7.60
  -2   2   0  223.88    8.20
   2   2   0  221.08    7.90
  -2   2   0  222.78    8.20
  -3  -2   0  620.54   22.30
  -3  -2   0  638.74   21.90
   3  -2   0  635.34   21.70
  -3  -2   0  634.94   21.70
  -3   2   0  641.04   22.30
  -3   2   0  645.94   22.30
   3   2   0  645.84   22.00
   3   2   0  628.24   21.80
  -3   2   0  631.54   21.90
  -3   2   0  638.14   21.60
   4  -2   0  569.54   20.70
  -4  -2   0  607.54   20.90
   4  -2   0  630.64   21.00
  -4  -2   0  622.24   21.30
  -4  -2   0  602.84   21.70
  -4   2   0  617.14   21.70
   4   2   0  606.74   21.30
  -4   2   0  593.94   20.60
   4   2   0  677.03   22.30
  -4   2   0  594.84   21.00
  -4   2   0  613.24   21.40
  -5  -2   0 1157.28   39.90
   5  -2   0 1188.78   40.20
  -5  -2   0 1216.08   40.90
  -5  -2   0 1195.88   40.40
   5  -2   0 1259.27   40.70
  -5  -2   0 1213.28   41.30
   5  -2   0 1100.49   40.30
   5   2   0 1221.78   41.20
  -5   2   0 1213.58   41.40
  -5   2   0 1212.38   40.30
  -5   2   0 1177.68   41.00
  -5   2   0 1186.78   41.40
  -5   2   0 1225.08   40.20
   5   2   0 1170.68   40.20
  -5   2   0 1224.38   41.20
  -5   2   0 1205.08   40.70
   5   2   0 1221.08   41.10
   6  -2   0    7.20    1.90
  -6  -2   0    6.50    1.50
  -6  -2   0    6.60    0.70
  -6  -2   0    7.00    1.90
  -6  -2   0    6.50    1.70
  -6   2   0    7.60    0.60
   6   2   0    5.90    1.70
   6   2   0    5.40    1.60
  -6   2   0    6.70    1.00
  -6   2   0    7.30    1.60
  -6   2   0    6.70    1.80
   6   2   0    7.00    0.50
  -6   2   0    5.70    1.60
   6   2   0    6.90    0.60
  -6   2   0    7.20    0.50
  -7  -2   0   84.79    5.30
   7  -2   0   83.69    3.90
   7  -2   0   85.59    4.90
  -7  -2   0   82.99    6.20
  -7  -2   0   86.79    3.50
  -7   2   0   88.09    3.30
   7   2   0   89.99    3.30
  -7   2   0   87.99    3.30
   7   2   0   90.19    4.60
  -7   2   0   91.29    4.70
  -7   2   0   86.09    4.70
  -7   2   0   90.59    3.40
   7   2   0   89.19    3.40
  -7   2   0   86.19    4.10
   7   2   0   90.39    4.70
  -8  -2   0 1227.28   41.50
  -8  -2   0 1088.29   40.60
   8  -2   0 1367.16   41.50
   8  -2   0 1134.59   41.20
  -8  -2   0 1204.78   40.80
  -8  -2   0 1226.28   41.10
  -8   2   0 1184.08   41.10
   8   2   0 1190.88   40.40
   8   2   0 1139.89   39.90
   8   2   0 1217.88   40.00
   8   2   0 1184.68   40.10
   8   2   0 1216.08   40.20
  -8   2   0 1220.88   40.10
  -8   2   0 1201.38   40.00
   9  -2   0  107.19    4.70
  -9  -2   0  108.49    4.40
  -9  -2   0  108.39    4.20
  -9  -2   0  113.19    5.00
   9  -2   0  107.89    4.30
  -9  -2   0  112.49    4.20
   9   2   0  114.39    4.60
   9   2   0  117.29    4.30
   9   2   0  115.09    4.40
  -9   2   0  111.69    5.10
   9   2   0  120.39    4.40
  -9   2   0  118.99    4.10
  -9   2   0  112.49    4.60
 -10  -2   0    2.60    0.80
 -10  -2   0    3.40    0.50
 -10  -2   0    3.70    0.50
  10  -2   0    5.40    1.30
  10  -2   0    2.80    0.60
  10   2   0    4.10    0.50
  10   2   0    4.00    0.60
 -10   2   0    4.20    0.50
 -10   2   0    4.50    0.70
 -10   2   0    3.50    1.00
 -10   2   0    4.30    0.70
  10   2   0    3.80    0.40
  10   2   0    3.00    0.60
  10   2   0    4.00    0.60
 -11  -2   0   28.50    1.60
 -11  -2   0   30.20    1.20
 -11  -2   0   26.80    1.60
  11  -2   0   28.30    1.40
 -11  -2   0   29.40    1.30
 -11   2   0   30.20    1.40
  11   2   0   29.50    1.50
  11   2   0   33.30    1.20
  11   2   0   31.20    1.30
 -11   2   0   30.50    1.50
 -11   2   0   32.80    1.60
  11   2   0   31.20    1.50
   0  -3   0    0.50    0.60
   0  -3   0    0.30    0.20
   0  -3   0    0.50    0.60
   0   3   0   -0.10    0.70
   0   3   0    0.90    0.60
   0   3   0    0.90    0.50
   0   3   0    0.20    0.40
   0   3   0    0.90    0.50
  -1  -3   0   13.60    1.50
   1  -3   0   13.60    1.00
   1  -3   0   12.40    1.20
  -1  -3   0   13.50    1.40
  -1  -3   0   14.20    1.10
  -1   3   0   12.70    0.80
   1   3   0   13.90    1.30
   1   3   0   14.40    1.20
   1   3   0   12.90    1.00
   1   3   0   12.50    1.10
  -1   3   0   13.70    1.40
   1   3   0   13.30    1.30
  -1   3   0   13.00    1.40
   1   3   0   15.00    1.00
  -1   3   0   13.80    1.10
   2  -3   0  406.76   15.00
   2  -3   0  415.56   14.50
  -2  -3   0  427.96   16.80
  -2  -3   0  433.16   14.90
  -2  -3   0  424.66   15.20
  -2   3   0  479.75   17.40
   2   3   0  453.55   15.60
   2   3   0  427.86   15.40
   2   3   0  431.66   15.20
  -2   3   0  440.56   16.00
  -2   3   0  431.86   15.50
  -2   3   0  428.86   15.00
  -3  -3   0  352.86   12.40
  -3  -3   0  358.56   12.80
  -3  -3   0  338.57   13.20
   3  -3   0  321.77   12.20
  -3   3   0  348.67   13.00
  -3   3   0  339.47   11.70
  -3   3   0  363.36   14.00
  -3   3   0  346.77   12.00
  -3   3   0  349.47   13.10
   3   3   0  347.57   12.60
  -3   3   0  336.77   11.80
   3   3   0  348.17   12.40
  -4  -3   0  268.17   10.20
   4  -3   0  243.48    9.50
  -4  -3   0  259.47    9.70
  -4  -3   0  261.97   10.60
  -4   3   0  267.47    9.10
  -4   3   0  269.67   10.10
  -4   3   0  269.47    9.20
   4   3   0  257.07    9.90
   4   3   0  273.87   10.20
  -4   3   0  275.67   10.60
   4   3   0  252.97    9.10
  -4   3   0  269.97   10.50
  -5  -3   0  140.69    6.70
  -5  -3   0  143.79    6.00
  -5  -3   0  145.09    6.60
   5  -3   0  133.69    5.70
   5   3   0  139.49    5.90
  -5   3   0  144.89    5.00
  -5   3   0  138.59    5.10
   5   3   0  143.19    6.20
   5   3   0  137.09    4.90
  -5   3   0  143.69    6.50
  -5   3   0  131.69    7.50
  -5   3   0  142.99    6.40
  -5   3   0  143.79    5.20
  -6   3   0   68.89    4.30
   6   3   0   72.19    2.70
  -6   3   0   72.29    2.80
   6   3   0   67.69    3.90
  -6   3   0   71.79    4.10
  -6   3   0   71.39    2.80
   6   3   0   71.39    2.80
   6   3   0   71.99    4.10
   6   3   0   65.39    2.90
  -6   3   0   72.89    4.30
  -6   3   0   72.79    2.70
  -7  -3   0   49.00    2.10
   7  -3   0   49.00    2.30
  -7  -3   0   51.79    2.30
  -7  -3   0   61.19    3.10
  -7  -3   0   53.69    2.40
  -7  -3   0   50.59    2.20
   7  -3   0   51.89    2.90
  -7   3   0   54.59    2.10
  -7   3   0   55.29    2.20
  -7   3   0   55.59    2.50
  -7   3   0   55.19    3.40
  -7   3   0   60.49    2.80
   7   3   0   55.09    2.20
  -7   3   0   53.79    2.30
   7   3   0   59.59    2.60
  -8  -3   0  164.88    6.10
   8  -3   0  171.68    6.90
   8  -3   0  174.28    6.20
  -8  -3   0  168.48    6.70
  -8  -3   0  168.48    6.00
  -8  -3   0  167.58    6.20
  -8  -3   0  164.78    6.90
  -8  -3   0  164.68    5.90
   8   3   0  179.28    6.40
  -8   3   0  152.18    8.10
   8   3   0  180.88    6.70
  -8   3   0  183.78    6.50
  -8   3   0  185.78    6.60
   8   3   0  190.18    6.60
  -8   3   0  188.48    6.70
   8   3   0  200.98    6.80
   8   3   0  184.48    6.50
  -8   3   0  177.88    6.30
  -9  -3   0   15.10    0.80
   9  -3   0   14.90    1.40
  -9  -3   0   14.30    1.40
  -9  -3   0   14.60    0.80
  -9  -3   0   15.30    1.30
  -9  -3   0   13.50    0.90
  -9  -3   0   15.30    1.00
   9  -3   0   14.40    1.00
  -9   3   0   25.20   15.50
  -9   3   0   16.20    0.80
   9   3   0   16.70    1.00
   9   3   0   17.20    1.10
  -9   3   0   14.60    2.20
   9   3   0   15.80    1.00
  -9   3   0   15.70    0.70
  -9   3   0   15.90    1.00
   9   3   0   16.10    1.10
 -10  -3   0   13.00    1.00
  10  -3   0   11.20    1.20
 -10  -3   0   12.50    1.20
  10  -3   0   12.80    1.30
  10  -3   0   12.40    0.80
 -10  -3   0   12.10    0.80
  10   3   0   14.50    0.90
 -10   3   0   12.40    1.50
  10   3   0   14.00    0.80
  10   3   0   13.70    0.70
  10   3   0   13.20    0.90
 -10   3   0   13.90    0.60
  10   3   0   13.70    0.90
 -10   3   0   14.10    0.90
  11  -3   0    4.20    0.80
  11  -3   0    5.40    0.50
 -11  -3   0    4.90    0.60
 -11  -3   0    4.60    0.60
  11  -3   0    4.90    0.70
  11   3   0    7.00    0.50
  11   3   0    6.50    0.40
  11   3   0    6.40    0.60
 -11   3   0    6.10    0.50
   0  -4   0 1492.05   49.90
   0  -4   0 1435.56   49.60
   0  -4   0 1497.75   50.49
   0   4   0 1573.04   53.99
   0   4   0 1597.14   54.09
   0   4   0 1574.34   53.89
  -1  -4   0   12.20    1.90
   1  -4   0   15.90    1.40
   1  -4   0   14.30    1.20
  -1  -4   0   15.10    1.80
  -1  -4   0   15.60    1.60
   1  -4   0   15.70    1.70
  -1   4   0   15.30    0.70
   1   4   0   17.20    2.60
  -1   4   0   17.00    2.00
   1   4   0   15.70    2.10
  -1   4   0   15.10    1.80
  -1   4   0   14.60    1.60
   1   4   0   15.50    1.70
   1   4   0   15.60    1.90
   1   4   0   15.00    2.20
   1   4   0   13.60    1.50
  -2  -4   0  486.35   17.90
  -2  -4   0  499.75   17.50
  -2  -4   0  472.45   19.00
   2   4   0  481.45   17.50
  -2   4   0  518.55   18.60
  -2   4   0  518.85   16.80
  -2   4   0  502.45   17.90
  -2   4   0  456.55   19.90
  -2   4   0  493.95   16.90
   2   4   0  523.75   17.80
   2   4   0  515.65   18.00
   2   4   0  504.25   17.80
  -3  -4   0   13.50    2.30
  -3  -4   0   15.00    2.70
  -3  -4   0   15.30    1.80
   3  -4   0   14.00    1.30
   3   4   0   13.50    1.70
  -3   4   0   13.70    2.00
  -3   4   0   14.50    2.20
   3   4   0   15.90    1.90
  -3   4   0   14.80    0.80
  -3   4   0   14.90    1.80
   3   4   0   17.80    2.10
  -3   4   0   14.90    0.70
   4  -4   0   60.89    3.10
  -4  -4   0   57.99    4.20
  -4  -4   0   62.09    3.60
   4   4   0   58.19    4.90
   4   4   0   62.09    3.70
  -4   4   0   63.39    4.20
  -4   4   0   65.79    2.40
   4   4   0   62.19    2.30
  -4   4   0   65.19    2.50
  -4   4   0   60.09    4.00
  -4   4   0   56.79    3.60
   5  -4   0    3.50    0.90
  -5  -4   0    0.70    2.00
  -5  -4   0    3.30    1.90
  -5   4   0    5.10    0.50
   5   4   0    3.30    0.50
  -5   4   0    3.40    1.50
  -5   4   0    4.10    0.50
  -5   4   0    4.70    2.40
   5   4   0   -3.10    3.20
  -5   4   0    6.50    2.60
  -5   4   0    4.80    0.40
   5   4   0    3.60    2.00
  -6  -4   0  162.88    6.50
  -6  -4   0  166.88    6.10
   6  -4   0  158.28    7.60
  -6  -4   0  159.48    6.90
   6  -4   0  166.08    6.00
   6  -4   0  179.38    6.90
  -6  -4   0  163.88    6.20
  -6  -4   0  161.48    6.40
   6  -4   0  172.88    6.50
   6  -4   0  149.59    8.90
  -6  -4   0  164.98    6.20
   6  -4   0  162.08    7.00
  -6  -4   0  172.68    6.20
  -6   4   0  169.38    6.90
  -6   4   0  190.08    6.60
  -6   4   0  180.68    6.40
   6   4   0  184.78    6.40
  -6   4   0  189.18    6.60
   6   4   0  182.58    6.50
  -6   4   0  191.08    6.50
   7  -4   0  109.79    4.40
  -7  -4   0  115.59    4.40
  -7  -4   0  108.69    5.10
   7  -4   0  115.39    5.30
  -7  -4   0  116.39    4.40
   7  -4   0  102.19    6.90
  -7  -4   0  120.19    4.70
   7  -4   0  120.99    5.10
   7  -4   0  107.89    6.00
  -7  -4   0  119.29    5.20
  -7  -4   0  111.79    4.90
   7   4   0  133.49    4.60
  -7   4   0  119.49    5.00
   7   4   0  124.09    4.70
  -7   4   0  129.19    4.70
  -7   4   0  127.39    4.60
   7   4   0  129.99    4.70
  -7   4   0  130.59    4.80
  -7   4   0  127.29    4.50
   8  -4   0   76.79    3.80
   8  -4   0   74.99    3.00
   8  -4   0   75.79    4.30
  -8  -4   0   75.79    3.70
   8  -4   0   79.09    3.60
  -8  -4   0   76.49    3.10
  -8  -4   0   76.39    3.10
  -8  -4   0   75.89    3.00
  -8  -4   0   74.49    3.40
  -8   4   0   85.79    3.40
  -8   4   0   81.59    3.20
  -8   4   0   84.79    3.30
  -8   4   0   85.09    3.10
   8   4   0   84.99    3.30
   8   4   0   88.19    3.30
   8   4   0   89.09    3.20
  -8   4   0   85.29    3.20
   8   4   0   83.69    3.10
  -9  -4   0  146.29    5.50
   9  -4   0  139.69    5.80
  -9  -4   0  137.69    5.70
  -9  -4   0  147.59    5.10
   9  -4   0  137.89    6.20
  -9  -4   0  142.09    5.10
   9  -4   0  140.39    5.60
   9  -4   0  144.99    5.10
  -9   4   0  163.58    5.90
  -9   4   0  161.68    5.50
   9   4   0  164.58    5.80
   9   4   0  170.28    5.80
   9   4   0  169.58    5.70
  -9   4   0  146.79    5.70
   9   4   0  162.98    5.60
  -9   4   0  151.78    5.60
  -9   4   0  163.68    5.60
  10  -4   0  189.88    7.10
 -10  -4   0  189.48    6.60
 -10  -4   0  189.68    7.00
 -10  -4   0  195.18    6.80
  10  -4   0  198.28    6.60
  10  -4   0  190.28    7.30
 -10  -4   0  177.58    6.60
  10   4   0  226.88    7.50
 -10   4   0  219.48    7.30
  10   4   0  193.68    7.60
  10   4   0  223.88    7.40
 -10   4   0  221.18    7.50
   0  -5   0   -0.20    0.60
   0  -5   0   -0.40    1.50
   0  -5   0    0.00    0.20
  -1  -5   0    5.40    1.80
   1  -5   0    9.20    1.80
   1  -5   0    4.50    0.90
  -1  -5   0   10.40    2.80
  -1   5   0    9.70    3.50
  -1   5   0    9.10    0.50
  -1   5   0   15.10    3.70
   2  -5   0   17.90    1.30
  -2  -5   0   17.80    1.40
  -2  -5   0   18.60    1.20
  -2  -5   0   19.00    1.40
  -2  -5   0   18.70    1.40
  -2  -5   0   18.40    1.70
   2  -5   0   19.10    1.90
  -2  -5   0   19.00    1.30
  -2  -5   0   17.30    1.80
   2  -5   0   18.10    1.60
   2  -5   0   17.40    2.00
  -2  -5   0   17.50    1.40
  -2  -5   0   18.50    1.60
   2  -5   0   20.60    1.30
   2  -5   0   17.10    1.50
  -2  -5   0   17.00    1.70
   2  -5   0   18.30    2.10
   2  -5   0   17.70    1.60
  -2  -5   0   18.50    3.60
  -2  -5   0   18.50    1.30
  -2   5   0   14.10    3.10
  -2   5   0   21.90    1.00
  -2   5   0   20.50    0.90
  -3  -5   0   25.60    2.70
  -3  -5   0   26.30    2.00
   3  -5   0   23.10    1.50
   3  -5   0   27.00    2.30
   3  -5   0   25.70    1.90
  -3   5   0   27.00    1.40
  -3   5   0   28.50    1.20
  -4  -5   0   12.70    1.20
  -4  -5   0   11.90    1.10
  -4  -5   0   13.70    1.10
  -4  -5   0   13.40    1.40
   4  -5   0   13.40    1.50
  -4  -5   0   11.80    1.00
  -4  -5   0   14.90    1.40
  -4  -5   0   13.10    1.10
  -4  -5   0   14.20    1.10
   4  -5   0   13.80    1.40
   4  -5   0   12.90    1.50
  -4  -5   0   13.40    1.00
  -4  -5   0   13.40    1.10
  -4  -5   0   13.40    1.20
   4  -5   0   12.80    1.30
   4  -5   0   12.70    1.70
   4  -5   0   12.50    1.80
  -4  -5   0   14.50    1.40
  -4   5   0   14.70    0.80
  -4   5   0   15.60    0.90
  -4   5   0   15.80    0.90
  -5  -5   0  187.08    7.00
   5  -5   0  181.38    8.60
   5  -5   0  191.48    7.40
  -5  -5   0  201.28    7.10
  -5  -5   0  191.88    7.00
  -5  -5   0  185.48    7.70
   5  -5   0  190.68    7.60
   5  -5   0  200.48    8.90
  -5  -5   0  183.58    7.50
  -5  -5   0  195.78    7.20
   5  -5   0  187.18    7.90
  -5  -5   0  190.88    7.30
  -5  -5   0  190.58    7.10
   5  -5   0  199.98    9.10
  -5   5   0  205.48    7.20
   5   5   0  202.78    7.00
   5   5   0  209.78    7.10
  -5   5   0  205.18    7.10
  -5   5   0  190.38    7.30
  -5   5   0  206.98    7.20
   6  -5   0   33.90    2.70
   6  -5   0   36.30    2.80
  -6  -5   0   33.90    1.80
  -6  -5   0   34.70    1.90
   6  -5   0   34.80    2.40
  -6  -5   0   34.70    2.30
  -6  -5   0   35.80    1.80
   6  -5   0   36.00    1.90
  -6  -5   0   35.90    1.80
   6  -5   0   33.70    2.20
  -6  -5   0   34.60    2.00
  -6  -5   0   34.40    1.70
   6   5   0   38.60    1.60
   6   5   0   38.20    1.70
  -6   5   0   38.40    1.70
  -6   5   0   38.90    1.70
  -6   5   0   36.00    1.80
  -6   5   0   38.40    1.50
  -6   5   0   39.20    1.60
   7  -5   0   59.59    4.30
   7  -5   0   56.89    3.30
  -7  -5   0   57.79    2.80
  -7  -5   0   61.59    3.70
   7  -5   0   68.49    4.10
   7  -5   0   58.59    3.00
  -7  -5   0   62.49    2.60
  -7  -5   0   59.49    2.60
  -7   5   0   63.59    2.70
  -7   5   0   67.69    2.60
  -7   5   0   66.49    2.60
  -7   5   0   69.99    2.70
  -7   5   0   66.69    2.50
   7   5   0   66.99    2.50
   7   5   0   65.09    2.60
  -8  -5   0   32.80    1.90
   8  -5   0   34.70    2.00
   8  -5   0   34.40    1.90
  -8  -5   0   34.10    1.60
  -8  -5   0   35.80    1.50
   8  -5   0   35.00    2.30
  -8  -5   0   34.80    1.50
  -8  -5   0   34.60    1.90
  -8   5   0   39.10    1.40
  -8   5   0   37.80    1.60
  -8   5   0   38.90    1.70
   8   5   0   36.90    1.80
   8   5   0   38.50    1.70
   8   5   0   37.80    1.70
  -8   5   0   39.50    1.50
   8   5   0   38.30    1.50
  -8   5   0   36.20    1.50
  -9  -5   0   40.70    1.90
  -9  -5   0   42.30    1.60
   9  -5   0   40.20    2.00
   9  -5   0   41.70    2.70
  -9  -5   0   41.00    1.60
   9   5   0   45.90    1.60
   9   5   0   45.40    2.00
  -9   5   0   43.70    1.70
  -9   5   0   47.50    1.60
  -9   5   0   44.00    1.80
   0  -6   0  113.19    5.80
   0  -6   0  107.09    5.20
   0  -6   0  108.69    4.80
   0  -6   0  109.59    4.40
   0  -6   0  116.89    4.60
   0  -6   0   93.99    5.00
   0  -6   0   96.59    4.30
   0  -6   0  108.09    4.00
   0  -6   0  105.69    4.30
   0  -6   0  100.69    4.30
   0  -6   0  103.79    4.80
   0  -6   0  100.49    4.00
   1  -6   0  294.27   10.70
   1  -6   0  299.67   11.10
  -1  -6   0  298.37   10.80
  -1  -6   0  304.47   10.60
  -1  -6   0  297.67   10.30
  -1  -6   0  292.87   11.00
   1  -6   0  302.87   10.60
  -1  -6   0  296.67   10.70
   1  -6   0  306.77   10.70
   1  -6   0  294.17   11.90
  -1  -6   0  296.87   11.20
  -1  -6   0  295.57   10.70
  -1  -6   0  290.77   10.80
  -1  -6   0  292.97   11.20
  -1  -6   0  298.97   10.70
  -1  -6   0  300.57   10.50
   1  -6   0  293.47   11.50
  -1  -6   0  294.87   11.60
   1  -6   0  297.57   11.40
   1  -6   0  287.07   11.00
  -2  -6   0  309.37   11.40
  -2  -6   0  309.47   10.70
  -2  -6   0  310.27   11.10
  -2  -6   0  306.87   10.80
   2  -6   0  310.07   11.70
  -2  -6   0  307.97   11.00
   2  -6   0  298.77   11.40
  -2  -6   0  307.57   11.10
  -2  -6   0  314.27   11.80
   2  -6   0  302.17   11.90
  -2  -6   0  311.97   10.90
   2  -6   0  308.77   10.80
   2  -6   0  295.77   12.20
  -2  -6   0  302.17   11.40
  -2  -6   0  298.07   11.00
   2  -6   0  315.97   11.40
  -2  -6   0  312.87   11.30
  -2   6   0  305.27   10.60
  -2   6   0  317.77   10.50
  -3  -6   0   71.09    3.00
   3  -6   0   69.19    4.00
  -3  -6   0   74.09    3.40
  -3  -6   0   71.29    3.00
   3  -6   0   66.59    3.30
  -3  -6   0   75.89    3.60
  -3  -6   0   71.29    3.40
  -3  -6   0   69.09    3.00
  -3  -6   0   70.69    3.00
  -3  -6   0   75.09    3.10
   3  -6   0   69.79    3.30
   3  -6   0   69.49    3.50
  -3  -6   0   73.09    2.90
  -3  -6   0   71.39    3.30
   3  -6   0   68.69    3.80
   3  -6   0   70.29    3.50
  -3  -6   0   70.59    3.10
  -3  -6   0   71.19    3.20
  -3  -6   0   67.09    2.80
  -3   6   0   76.89    2.80
  -3   6   0   74.79    2.80
  -3   6   0   73.39    2.70
   4  -6   0  120.59    5.90
   4  -6   0  123.59    5.20
  -4  -6   0  141.59    5.20
  -4  -6   0  126.69    4.80
  -4  -6   0  126.79    5.00
  -4  -6   0  127.39    4.70
   4  -6   0  118.09    5.40
  -4  -6   0  119.89    5.20
  -4  -6   0  120.59    4.70
  -4  -6   0  125.09    4.90
   4  -6   0  127.69    5.10
  -4  -6   0  140.09    5.40
  -4  -6   0  140.89    6.00
   4  -6   0  122.49    5.80
  -4  -6   0  122.29    4.80
  -4  -6   0  128.39    5.10
  -4   6   0  128.69    4.50
  -4   6   0  127.69    4.60
  -4   6   0  125.19    4.80
  -5  -6   0   41.40    1.80
   5  -6   0   44.20    2.20
  -5  -6   0   39.90    2.30
   5  -6   0   43.40    2.10
   5  -6   0   40.60    2.70
   5  -6   0   41.30    2.40
  -5  -6   0   41.70    2.00
   5  -6   0   41.30    2.60
  -5  -6   0   42.60    1.90
  -5  -6   0   41.70    1.90
  -5  -6   0   41.60    2.00
  -5  -6   0   43.00    1.90
  -5   6   0   40.20    1.60
  -5   6   0   43.60    1.80
  -5   6   0   43.80    1.90
  -5   6   0   42.60    1.70
   6  -6   0   15.80    1.30
  -6  -6   0   16.50    1.30
  -6  -6   0   16.80    1.00
  -6  -6   0   16.60    1.10
   6  -6   0   16.60    1.90
   6  -6   0   18.50    1.40
  -6  -6   0   17.70    1.00
  -6  -6   0   17.00    0.90
  -6  -6   0   17.30    1.00
   6  -6   0   16.30    1.70
  -6   6   0   17.00    0.80
  -6   6   0   18.40    0.90
  -6   6   0   17.50    0.90
  -7  -6   0    6.10    0.40
  -7  -6   0    5.30    0.50
   7  -6   0    5.10    0.80
  -7  -6   0    3.80    0.60
  -7  -6   0    5.00    0.40
   7  -6   0    5.00    0.70
  -7  -6   0    5.10    0.70
  -7   6   0    4.90    0.60
  -7   6   0    5.90    0.40
  -7   6   0    5.80    0.30
   0  -7   0    0.40    1.40
   0  -7   0    1.10    1.60
   0  -7   0   -0.50    1.30
   0  -7   0    2.30    1.70
   0  -7   0    0.80    1.60
  -1  -7   0    6.40    0.60
   1  -7   0    6.80    1.00
   1  -7   0    6.30    0.90
  -1  -7   0    7.50    0.80
   1  -7   0    7.20    0.80
  -1  -7   0    7.50    0.60
  -1  -7   0    7.30    0.80
  -1  -7   0    6.70    0.80
  -1  -7   0    6.70    0.70
  -1  -7   0    7.40    0.90
   1  -7   0    7.10    0.60
  -1  -7   0    5.70    0.70
   1  -7   0    7.40    0.80
  -1  -7   0    6.70    0.60
   1  -7   0    6.70    0.80
  -2  -7   0  149.79    5.50
  -2  -7   0  148.39    5.50
  -2  -7   0  142.39    5.60
  -2  -7   0  154.08    6.10
   2  -7   0  145.49    5.70
  -2  -7   0  144.49    5.50
   2  -7   0  145.79    6.10
   2  -7   0  147.69    6.80
  -2  -7   0  147.19    5.50
  -2  -7   0  138.59    5.30
  -2  -7   0  137.79    5.20
  -2  -7   0  149.99    5.90
  -2  -7   0  146.49    5.30
  -2  -7   0  153.48    5.40
   2  -7   0  146.99    5.50
   2  -7   0  140.49    5.60
  -3  -7   0   22.30    1.10
  -3  -7   0   24.30    1.30
   3  -7   0   27.00    1.70
   3  -7   0   24.60    1.50
   3  -7   0   23.30    1.70
  -3  -7   0   25.60    1.30
  -3  -7   0   21.80    1.20
  -3  -7   0   23.20    1.30
  -3  -7   0   24.70    1.10
   3  -7   0   25.30    1.40
   4  -7   0   64.39    2.50
  -4  -7   0   57.39    2.50
  -4  -7   0   60.29    2.30
   4  -7   0   65.99    2.50
   4  -7   0   61.59    2.90
   4  -7   0   58.49    2.60
  -4  -7   0   59.49    2.30
   4  -7   0   60.99    2.90
  -4  -7   0   56.49    2.50
 -12   0   1    3.60    0.80
 -11   0   1   85.99    3.80
  11   0  -1   80.49    3.70
  11   0  -1   86.09    3.90
 -11   0   1   90.29    3.90
 -11   0   1   80.09    3.70
  10   0  -1   41.90    3.00
 -10   0   1   50.69    2.60
  10   0  -1   49.60    1.90
   9   0  -1   72.79    2.90
  -9   0   1   75.39    3.60
   9   0  -1   70.89    3.00
   9   0  -1   75.89    3.60
  -9   0   1   85.59    3.80
  -8   0   1  102.69    4.40
  -8   0   1  102.49    5.30
   8   0  -1  101.49    5.00
   8   0  -1   97.59    4.30
   8   0  -1   99.89    3.80
   8   0  -1  100.19    5.00
   7   0  -1   95.99    3.70
   7   0  -1   99.89    4.50
   7   0  -1   96.39    3.60
  -7   0   1   94.89    4.50
  -7   0   1  100.89    4.20
  -7   0   1  106.29    5.30
   6   0  -1   78.39    3.50
  -6   0   1   77.19    3.70
   6   0  -1   79.89    3.70
   6   0  -1   76.99    2.90
   6   0  -1   76.49    3.50
   6   0  -1   73.59    2.80
  -6   0   1   82.09    3.60
  -6   0   1   74.79    3.30
  -5   0   1    1.60    0.50
  -5   0   1    2.70    0.70
   5   0  -1    0.80    0.60
  -4   0   1 1096.09   36.90
  -4   0   1 1073.79   36.70
   4   0  -1 1105.49   37.10
  -4   0   1 1103.29   37.20
  -4   0   1 1104.79   37.10
   4   0  -1 1123.29   37.10
  -3   0   1  613.84   20.50
   3   0  -1  611.24   20.50
   3   0  -1  594.84   20.40
  -3   0   1  609.14   20.30
  -3   0   1  594.24   20.20
  -3   0   1  600.14   20.50
   2   0  -1 5136.49  169.38
  -2   0   1 4901.71  169.08
  -1   0   1    1.70    0.20
   0   0  -1   94.89    3.40
   0   0  -1  105.79    3.40
   0   0   1   96.99    3.40
   0   0   1   98.89    3.40
   0   0  -1  100.09    3.40
  -1   0  -1  171.78    6.10
  -1   0  -1  174.98    6.20
  -1   0  -1  181.88    6.20
   1   0   1  182.98    6.10
  -1   0  -1  178.08    6.10
  -2   0  -1  210.78    7.20
  -2   0  -1  203.98    7.10
  -2   0  -1  205.18    7.10
   2   0   1  200.38    7.10
  -2   0  -1  200.68    7.20
   3   0   1  254.97    9.20
  -3   0  -1  266.27    9.30
  -3   0  -1  265.37    9.30
  -3   0  -1  258.57    9.20
   3   0   1  264.67    9.40
  -4   0  -1   49.50    2.30
   4   0   1   46.90    2.20
  -4   0  -1   45.70    2.20
   4   0   1   48.00    2.30
  -4   0  -1   45.60    2.40
  -4   0  -1   49.60    2.40
  -5   0  -1   17.30    1.30
  -5   0  -1   16.20    1.40
   5   0   1   18.50    1.40
   5   0   1   15.60    1.20
  -5   0  -1   15.50    1.10
   5   0   1   15.70    1.40
  -5   0  -1   17.50    1.40
  -5   0  -1   18.00    1.50
   5   0   1   16.30    0.80
  -5   0  -1   16.10    1.10
  -6   0  -1 1123.49   38.40
  -6   0  -1 1153.58   38.20
  -6   0  -1 1141.79   38.90
   6   0   1 1160.08   38.70
   6   0   1 1132.89   38.50
   6   0   1 1108.49   37.80
   6   0   1 1116.79   37.70
   6   0   1 1093.09   38.40
   7   0   1   29.50    1.50
   7   0   1   35.90    1.70
   7   0   1   35.60    1.60
   7   0   1   35.40    2.10
  -7   0  -1   33.30    2.70
  -7   0  -1   34.40    2.00
   7   0   1   32.00    2.90
   8   0   1  617.44   21.00
  -8   0  -1  634.24   21.90
  -8   0  -1  628.54   21.60
   8   0   1  623.14   21.40
   8   0   1  599.74   21.90
  -9   0  -1    0.10    0.20
   9   0   1   -0.40    0.30
   9   0   1    0.20    1.00
  -9   0  -1    0.40    0.30
  -9   0  -1    0.40    0.20
  10   0   1   61.29    2.60
 -10   0  -1   54.19    2.70
 -10   0  -1   60.79    2.50
 -10   0  -1   63.39    3.00
 -10   0  -1   61.99    2.60
  11   0   1   85.09    3.40
 -11   0  -1   97.19    4.00
 -11   0  -1   87.79    3.40
 -11   0  -1   84.59    3.40
 -12   0  -1    8.40    0.50
  12   0   1    8.60    0.60
 -12   0  -1   10.80    0.80
 -12   0  -1    9.00    0.60
  12  -1  -1    8.30    0.90
  12  -1  -1    8.30    0.70
 -12  -1   1    7.50    0.80
 -12  -1   1    8.00    0.60
 -12  -1   1    8.80    0.60
 -12   1   1    9.40    0.70
 -12   1   1    9.90    0.60
  12   1  -1    8.60    0.70
 -11  -1   1   56.89    3.20
  11  -1  -1   65.29    2.60
  11  -1  -1   61.79    2.60
 -11  -1   1   56.69    3.30
 -11  -1   1   72.29    3.10
 -11  -1   1   74.99    2.80
 -11   1   1   63.29    3.10
 -11   1   1   63.79    2.60
  11   1  -1   61.09    2.50
  11   1  -1   71.59    2.90
 -11   1   1   65.69    2.70
  11   1  -1   67.59    2.40
 -10  -1   1  246.28    8.60
  10  -1  -1  224.18    9.90
  10  -1  -1  219.78    8.20
 -10  -1   1  230.68    8.10
 -10  -1   1  225.88    8.20
  10  -1  -1  225.18    8.20
  10   1  -1  232.58    7.90
  10   1  -1  233.18    8.10
  10   1  -1  237.68    8.20
 -10   1   1  223.18    8.30
 -10   1   1  226.48    8.90
 -10   1   1  224.28    8.30
 -10   1   1  235.58    8.20
  10   1  -1  234.28    8.30
   9  -1  -1  119.69    5.10
  -9  -1   1  134.39    5.40
  -9  -1   1  130.39    5.00
   9  -1  -1  133.99    5.00
   9  -1  -1  150.38    6.90
  -9  -1   1  129.79    5.00
   9   1  -1  139.09    5.00
  -9   1   1  132.89    5.70
   9   1  -1  138.59    4.90
   9   1  -1  133.39    4.70
  -9   1   1  137.19    5.00
   9   1  -1  136.99    4.90
  -9   1   1  128.59    5.10
   9   1  -1  130.49    5.10
  -9   1   1  128.69    5.20
   8  -1  -1  281.07   12.60
   8  -1  -1  232.38    9.00
  -8  -1   1  237.98    8.90
  -8  -1   1  241.28    9.90
  -8  -1   1  193.68   12.10
   8   1  -1  243.08    8.50
   8   1  -1  245.18    8.60
   8   1  -1  270.17   11.00
  -8   1   1  238.38    9.80
  -8   1   1  237.38    9.30
   8   1  -1  239.18    8.60
  -7   1   1  126.69    5.20
   7   1  -1  125.59    5.60
   7   1  -1  125.19    4.60
   7   1  -1  119.59    4.60
   7   1  -1  127.79    5.60
   7   1  -1  124.09    4.50
  -7   1   1  137.69    6.70
  -7   1   1  124.29    5.70
   6  -1  -1  359.96   12.60
  -6  -1   1  323.37   12.00
  -6  -1   1  350.66   12.80
  -6  -1   1  343.47   12.10
   6   1  -1  327.57   11.50
   6   1  -1  346.87   12.30
   6   1  -1  328.87   11.40
  -6   1   1  336.07   12.40
   6   1  -1  342.37   12.30
  -6   1   1  337.47   11.40
  -6   1   1  338.07   12.10
  -6   1   1  327.57   11.50
  -6   1   1  346.17   12.40
  -5  -1   1  234.18    8.50
  -5  -1   1  251.27    9.20
  -5  -1   1  239.98    9.10
   5  -1  -1  243.28    8.60
   5  -1  -1  250.37    8.90
  -5  -1   1  235.18    8.60
   5  -1  -1  228.68    8.70
  -5  -1   1  246.48    8.90
   5   1  -1  243.48    8.90
  -5   1   1  239.48    8.80
   5   1  -1  239.38    8.80
  -5   1   1  246.48    9.00
  -5   1   1  247.08    9.00
   5   1  -1  228.18    8.20
  -4  -1   1  245.68    9.00
   4  -1  -1  243.78    8.80
  -4  -1   1  234.58    8.60
  -4  -1   1  249.28    8.80
  -4  -1   1  251.07    9.10
   4  -1  -1  245.18    8.60
   4   1  -1  249.68    8.80
  -4   1   1  241.88    8.90
  -4   1   1  240.78    8.90
   4   1  -1  245.68    8.80
  -4   1   1  245.48    8.90
   3  -1  -1 1430.66   48.60
   3  -1  -1 1489.75   48.40
  -3  -1   1 1423.66   48.60
  -3  -1   1 1409.86   48.90
  -3  -1   1 1467.55   48.30
  -3  -1   1 1511.95   48.80
  -3  -1   1 1421.76   48.50
  -3   1   1 1431.26   47.80
  -3   1   1 1412.16   47.50
   3   1  -1 1430.36   47.70
   3   1  -1 1445.36   47.70
  -3   1   1 1422.96   47.80
  -3   1   1 1398.16   47.70
   2  -1  -1 6479.75  218.18
  -2  -1   1 6445.46  216.48
  -2   1   1 6736.33  227.78
   2   1  -1 6808.12  227.18
  -1  -1   1  974.00   33.20
   1  -1  -1 1020.50   33.40
   1  -1  -1 1004.40   33.30
   1  -1  -1  993.10   33.20
   1  -1  -1  973.90   33.20
  -1  -1   1 1011.80   33.50
  -1  -1   1  986.70   33.40
   1   1  -1 1005.70   33.40
   1   1  -1 1018.50   33.30
  -1   1   1  977.80   33.50
  -1   1   1  998.50   33.30
   0   1  -1 3868.31  129.89
  -1  -1  -1  238.28    8.10
  -1  -1  -1  233.58    8.50
  -1  -1  -1  240.88    8.20
  -1  -1  -1  240.28    8.20
   1  -1   1  240.68    8.30
   1  -1   1  234.58    8.10
  -1  -1  -1  233.38    8.20
  -1   1  -1  237.58    8.40
  -1   1  -1  235.38    8.30
  -1   1  -1  236.28    8.10
   1   1   1  237.38    8.20
   1   1   1  235.68    7.90
  -2  -1  -1 1609.74   54.59
   2  -1   1 1601.84   54.29
  -2  -1  -1 1648.83   54.49
   2  -1   1 1669.63   54.49
  -2  -1  -1 1594.34   54.99
  -2  -1  -1 1648.04   54.29
  -2  -1  -1 1633.54   54.49
  -2  -1  -1 1664.13   54.59
  -2   1  -1 1611.64   53.29
   2   1   1 1598.04   53.29
  -2   1  -1 1594.34   53.49
  -2   1  -1 1566.44   53.09
  -3  -1  -1  980.80   31.80
  -3  -1  -1  920.11   31.80
   3  -1   1  941.71   31.70
   3  -1   1  921.71   31.50
  -3  -1  -1  932.91   31.80
   3   1   1  926.81   31.00
  -3   1  -1  928.81   31.20
   3   1   1  895.31   31.00
  -3   1  -1  911.11   31.00
  -4  -1  -1 1272.87   42.70
  -4  -1  -1 1233.68   43.00
  -4  -1  -1 1231.78   42.40
   4  -1   1 1306.67   42.60
  -4   1  -1 1254.97   42.60
   4   1   1 1262.07   42.40
   4   1   1 1251.47   42.40
  -4   1  -1 1233.88   42.20
  -4   1  -1 1262.37   42.50
   5  -1   1  811.42   29.40
  -5  -1  -1  848.12   29.30
  -5  -1  -1  860.91   29.40
  -5  -1  -1  874.61   30.10
   5  -1   1  916.91   29.70
  -5  -1  -1  865.21   29.80
  -5   1  -1  842.02   29.50
   5   1   1  892.51   30.40
  -5   1  -1  953.30   31.00
  -5   1  -1  865.71   30.30
   5   1   1  890.91   30.40
  -5   1  -1  903.01   30.50
   5   1   1  840.52   29.60
  -5   1  -1  901.41   30.60
   5   1   1  839.12   29.50
  -5   1  -1  899.81   30.50
   6  -1   1  456.45   16.20
  -6  -1  -1  440.76   15.90
  -6  -1  -1  427.56   15.90
   6  -1   1  444.46   15.70
   6  -1   1  401.26   15.20
  -6  -1  -1  422.96   15.20
   6   1   1  447.86   15.90
  -6   1  -1  445.96   15.70
  -6   1  -1  445.36   16.00
  -6   1  -1  431.06   15.50
   6   1   1  439.86   14.90
   6   1   1  404.36   15.40
  -6   1  -1  440.56   15.90
   6   1   1  439.96   15.90
   7  -1   1  300.87   11.20
  -7  -1  -1  298.97   14.30
  -7  -1  -1  316.27   11.10
   7  -1   1  298.27   11.10
   7   1   1  305.47   11.60
   7   1   1  313.87   10.80
  -7   1  -1  319.97   11.70
  -7   1  -1  317.37   12.30
   7   1   1  307.17   13.40
  -7   1  -1  320.37   12.00
   7   1   1  313.47   10.90
   7   1   1  316.67   10.90
   7   1   1  312.57   12.00
  -8  -1  -1  293.77   10.40
   8  -1   1  274.77   10.40
  -8  -1  -1  293.97   10.30
   8  -1   1  298.47   10.40
  -8  -1  -1  299.07   10.80
  -8   1  -1  277.27   10.90
   8   1   1  307.07   10.40
   8   1   1  297.57   10.70
  -8   1  -1  310.67   11.30
   8   1   1  308.07   10.30
  -8   1  -1  288.27   10.70
  -8   1  -1  306.07   10.60
   8   1   1  308.87   10.60
  -9  -1  -1   79.09    3.20
   9  -1   1   78.19    3.20
   9  -1   1   73.19    3.20
  -9  -1  -1   76.59    3.20
  -9  -1  -1   82.49    3.70
  -9  -1  -1   77.99    3.20
   9   1   1   79.99    3.20
  -9   1  -1   79.39    3.20
  -9   1  -1   79.09    3.40
  -9   1  -1   78.89    3.30
   9   1   1   82.19    3.10
   9   1   1   80.49    3.40
  -9   1  -1   78.19    3.90
   9   1   1   81.79    3.10
 -10  -1  -1   13.20    1.60
 -10  -1  -1   10.80    0.80
  10  -1   1    9.90    0.90
  10  -1   1   11.00    0.90
 -10  -1  -1   11.30    0.80
 -10   1  -1   11.10    1.30
  10   1   1   10.50    0.90
  10   1   1   11.30    0.60
 -10   1  -1   11.30    0.90
  10   1   1   23.70   22.10
  10   1   1   10.00    0.80
 -10   1  -1   10.50    0.90
 -11  -1  -1  171.58    6.10
 -11  -1  -1  166.78    6.10
 -11  -1  -1  171.18    6.00
  11  -1   1  163.18    6.10
  11  -1   1  179.68    6.30
 -11  -1  -1  167.28    6.50
  11   1   1  174.88    6.00
  11   1   1  171.78    6.10
 -11   1  -1  163.48    6.50
 -11   1  -1  173.28    6.20
 -11   1  -1  171.08    6.20
 -12  -2   1    2.20    0.50
  12  -2  -1    3.10    0.40
 -12  -2   1    3.10    0.50
  12  -2  -1    5.70    2.90
  12   2  -1    2.40    0.40
 -12   2   1    2.90    0.50
  12   2  -1    2.70    0.30
 -12   2   1    2.70    0.60
  11  -2  -1    9.30    0.70
 -11  -2   1    8.40    0.60
 -11  -2   1    8.80    0.90
 -11  -2   1    8.70    0.60
 -11  -2   1    8.30    0.90
  11   2  -1    9.60    0.90
 -11   2   1    9.40    0.70
  11   2  -1   10.00    0.70
  11   2  -1    8.90    0.80
 -11   2   1    8.90    1.10
  11   2  -1    8.90    0.80
  11   2  -1    9.80    0.50
 -10  -2   1  177.48    6.70
 -10  -2   1  182.48    6.40
  10  -2  -1  176.18    6.50
  10  -2  -1  181.38    7.10
 -10  -2   1  180.38    7.20
 -10  -2   1  182.48    6.50
  10   2  -1  193.58    6.70
 -10   2   1  190.68    7.10
 -10   2   1  187.78    7.00
  10   2  -1  196.98    6.90
  10   2  -1  194.28    6.80
 -10   2   1  195.88    7.00
  10   2  -1  196.68    7.00
 -10   2   1  181.98    7.60
  10   2  -1  200.18    7.00
  -9  -2   1   65.99    3.40
   9  -2  -1   61.49    2.70
  -9  -2   1   64.09    2.60
   9  -2  -1   63.29    3.30
  -9  -2   1   62.09    2.60
  -9  -2   1   61.39    2.60
   9   2  -1   69.19    2.80
   9   2  -1   70.79    2.90
  -9   2   1   69.89    2.90
   9   2  -1   67.39    2.90
  -9   2   1   73.19    3.30
   9   2  -1   67.49    2.60
   9   2  -1   67.89    2.80
  -9   2   1   68.09    2.50
  -9   2   1   74.69    3.40
  -9   2   1   64.09    3.70
  -8  -2   1  101.79    8.70
  -8  -2   1  127.49    5.40
   8  -2  -1  122.29    5.20
  -8  -2   1  115.49    4.50
  -8  -2   1  128.79    4.70
  -8  -2   1  118.39    4.50
   8  -2  -1  111.69    4.60
  -8   2   1  129.39    4.70
  -8   2   1  127.99    5.60
   8   2  -1  138.69    5.00
   8   2  -1  128.39    5.00
   8   2  -1  131.09    5.10
   8   2  -1  129.59    4.70
  -8   2   1  129.89    4.50
  -8   2   1  123.29    4.90
  -7  -2   1   44.70    3.60
   7  -2  -1   39.30    3.70
   7  -2  -1   45.50    2.70
  -7  -2   1   46.30    2.20
   7   2  -1   44.40    3.00
   7   2  -1   43.80    1.90
  -7   2   1   45.80    2.60
   7   2  -1   45.60    1.80
  -7   2   1   44.40    1.80
  -7   2   1   38.10    4.10
  -7   2   1   45.20    1.90
   7   2  -1   45.30    1.90
   7   2  -1   45.30    3.30
  -7   2   1   45.10    1.80
  -7   2   1   46.20    3.00
  -7   2   1   43.20    3.30
  -6  -2   1    0.60    0.50
   6  -2  -1    3.60    1.30
  -6  -2   1    1.50    1.00
  -6  -2   1    2.10    1.10
  -6   2   1    1.70    1.10
  -6   2   1    3.30    0.80
   6   2  -1    1.70    1.00
  -6   2   1    1.10    0.30
  -6   2   1    1.60    0.90
  -6   2   1    1.60    0.40
   6   2  -1    0.40    0.80
   6   2  -1    1.70    0.40
  -6   2   1    3.80    1.20
   5  -2  -1  329.87   11.70
  -5  -2   1  315.67   11.90
  -5  -2   1  309.97   11.40
   5  -2  -1  296.57   11.30
  -5  -2   1  322.97   12.10
  -5  -2   1  314.57   11.00
  -5   2   1  323.17   11.80
  -5   2   1  326.77   11.80
   5   2  -1  319.57   11.50
  -5   2   1  304.17   10.70
  -5   2   1  315.87   11.60
   5   2  -1  304.67   10.80
   5   2  -1  318.77   11.60
  -5   2   1  325.67   11.10
   5   2  -1  308.27   10.70
  -4  -2   1   94.79    4.30
  -4  -2   1   88.49    4.10
   4  -2  -1   88.29    3.90
  -4  -2   1   85.09    3.70
  -4   2   1   87.19    3.90
  -4   2   1   91.89    3.80
   4   2  -1   89.59    3.80
  -4   2   1   85.39    3.10
  -4   2   1   83.39    3.30
   4   2  -1   86.59    3.60
  -4   2   1   92.19    4.00
  -3  -2   1   96.19    3.80
   3  -2  -1   95.79    3.90
  -3  -2   1   95.99    4.10
  -3  -2   1   93.79    4.30
   3   2  -1   99.69    4.00
  -3   2   1   98.49    4.00
  -3   2   1   98.69    4.20
  -3   2   1   98.49    4.20
   3   2  -1  102.99    4.00
   2  -2  -1  249.28    8.50
   2  -2  -1  244.18    8.70
  -2  -2   1  238.38    9.10
   2  -2  -1  242.68    8.80
  -2  -2   1  247.18    8.90
  -2  -2   1  244.48    8.60
   2  -2  -1  238.68    8.40
   2   2  -1  247.58    8.80
  -2   2   1  245.78    8.80
  -2   2   1  251.57    9.10
   2   2  -1  246.88    8.70
  -2   2   1  254.67    9.10
  -1  -2   1 1086.69   36.00
   1  -2  -1 1082.09   36.30
  -1  -2   1 1035.60   37.10
   1  -2  -1 1089.89   36.10
   1  -2  -1 1066.79   35.90
  -1  -2   1 1063.99   36.40
   1   2  -1 1112.89   36.70
  -1   2   1 1073.09   36.30
   1   2  -1 1077.39   36.50
   1   2  -1 1066.19   36.60
  -1   2   1 1099.99   36.60
  -1   2   1 1117.09   37.00
  -1   2   1 1106.49   36.90
   0  -2  -1  128.59    4.80
   0  -2   1  124.19    4.60
   0  -2  -1  126.79    4.70
   0  -2   1  125.19    4.90
   0  -2  -1  126.69    5.10
   0   2   1  132.19    4.70
   0   2  -1  128.59    4.50
   0   2  -1  132.19    4.90
   0   2   1  130.39    4.80
   0   2   1  129.59    4.80
   0   2  -1  126.59    4.60
   1  -2   1  210.38    7.60
   1  -2   1  219.68    7.50
  -1  -2  -1  222.08    7.70
  -1  -2  -1  210.38    7.80
  -1  -2  -1  213.68    8.20
   1  -2   1  217.88    7.90
  -1   2  -1  222.98    8.10
  -1   2  -1  217.68    7.50
  -1   2  -1  218.78    8.60
   1   2   1  214.98    7.60
   1   2   1  219.68    7.80
   1   2   1  209.88    7.60
   2  -2   1   40.40    1.80
  -2  -2  -1   38.50    2.00
   2  -2   1   37.10    1.90
  -2  -2  -1   38.10    2.30
  -2  -2  -1   38.00    1.90
  -2   2  -1   38.90    2.00
  -2   2  -1   36.80    1.70
   2   2   1   39.50    1.90
  -2   2  -1   41.90    2.20
  -3  -2  -1  190.38    7.00
  -3  -2  -1  184.38    6.90
   3  -2   1  184.58    6.80
  -3  -2  -1  182.88    7.60
  -3   2  -1  187.88    7.30
   3   2   1  185.08    7.00
   3   2   1  187.08    7.10
  -3   2  -1  186.28    7.10
  -3   2  -1  183.98    6.70
   4  -2   1  139.79    5.50
   4  -2   1  147.89    5.80
  -4  -2  -1  151.38    5.90
  -4  -2  -1  145.39    6.10
  -4  -2  -1  142.89    6.40
   4   2   1  150.28    6.00
  -4   2  -1  145.89    6.10
  -4   2  -1  148.09    5.90
  -4   2  -1  143.29    5.10
  -4   2  -1  141.59    5.00
   4   2   1  144.09    5.80
  -4   2  -1  141.79    5.50
  -4   2  -1  146.49    6.10
   5  -2   1   55.29    2.60
  -5  -2  -1   57.89    2.50
   5  -2   1   61.49    3.20
  -5  -2  -1   55.39    3.50
  -5  -2  -1   58.39    3.00
  -5   2  -1   57.09    3.30
   5   2   1   58.19    2.20
  -5   2  -1   56.79    2.90
  -5   2  -1   58.59    2.20
  -5   2  -1   59.29    2.90
  -5   2  -1   59.09    3.20
   5   2   1   59.29    3.10
  -5   2  -1   62.49    3.40
  -5   2  -1   61.29    2.40
   5   2   1   63.29    3.30
   6  -2   1   78.09    4.80
   6  -2   1   94.09    4.00
  -6  -2  -1   95.89    3.70
  -6  -2  -1   97.29    7.10
   6  -2   1   91.39    4.00
  -6  -2  -1   88.69    4.40
   6   2   1   96.19    4.80
  -6   2  -1   95.29    4.80
  -6   2  -1  101.39    3.60
  -6   2  -1  102.89    4.60
   6   2   1   93.69    4.60
  -6   2  -1   96.39    3.60
  -6   2  -1   96.99    4.40
   6   2   1   94.69    3.50
   6   2   1   91.49    3.60
  -6   2  -1   91.79    3.50
  -6   2  -1   96.19    4.80
   6   2   1   95.59    3.70
  -7  -2  -1  310.67   12.00
  -7  -2  -1  323.57   10.90
  -7  -2  -1  286.57   12.30
   7  -2   1  294.17   11.20
   7   2   1  306.67   12.50
   7   2   1  322.87   11.20
  -7   2  -1  313.77   12.60
   7   2   1  311.77   12.40
  -7   2  -1  320.07   11.00
  -7   2  -1  316.37   11.10
  -7   2  -1  319.27   12.00
   7   2   1  332.17   11.20
  -7   2  -1  349.47   14.80
  -8  -2  -1   55.29    2.60
  -8  -2  -1   53.89    2.30
  -8  -2  -1   54.79    2.40
   8  -2   1   55.79    2.50
   8  -2   1   52.19    2.90
  -8  -2  -1   58.59    2.50
  -8   2  -1   59.29    3.20
   8   2   1   54.19    2.20
   8   2   1   58.69    2.40
   8   2   1   57.29    2.50
  -8   2  -1   57.19    2.50
  -8   2  -1   55.79    2.10
   8   2   1   55.49    2.60
   8   2   1   57.59    2.30
   9  -2   1   26.30    2.60
  -9  -2  -1   30.40    1.50
  -9  -2  -1   33.70    2.20
  -9  -2  -1   31.00    1.60
  -9  -2  -1   29.30    1.40
   9  -2   1   29.90    1.60
  -9   2  -1   32.10    2.20
  -9   2  -1   37.20    1.80
  -9   2  -1   31.70    1.60
  -9   2  -1   29.50    1.20
   9   2   1   32.50    1.50
   9   2   1   34.20    1.50
   9   2   1   32.60    1.70
  -9   2  -1   31.30    1.70
   9   2   1   32.00    1.60
 -10  -2  -1   98.09    3.60
 -10  -2  -1   94.79    3.60
 -10  -2  -1   97.39    3.60
  10  -2   1   92.49    3.70
 -10   2  -1  105.09    3.90
  10   2   1  101.79    4.00
  10   2   1   98.59    4.20
 -10   2  -1   99.99    3.90
 -10   2  -1   98.69    3.90
 -10   2  -1  109.19    4.90
  10   2   1  100.29    4.00
 -11  -2  -1   15.40    1.40
 -11  -2  -1   15.30    1.00
 -11  -2  -1   15.40    0.80
  11  -2   1   16.10    0.90
 -11  -2  -1   15.50    0.70
  11   2   1   18.60    1.00
 -11   2  -1   14.80    0.90
 -11   2  -1   16.40    0.80
 -11   2  -1   16.40    1.00
  11   2   1   17.20    0.70
  11   2   1   17.20    1.00
 -11  -3   1    2.30    1.00
  11  -3  -1    2.10    0.60
 -11  -3   1    2.50    0.80
  11  -3  -1    2.90    2.10
 -11   3   1    2.40    0.40
  11   3  -1    2.90    0.50
  11   3  -1    2.10    0.50
  11   3  -1    2.70    0.50
  10  -3  -1   21.60    1.20
 -10  -3   1   22.20    1.50
 -10  -3   1   23.60    1.80
 -10  -3   1   21.30    1.10
  10  -3  -1   21.70    1.60
  10   3  -1   24.70    1.20
 -10   3   1   23.70    1.30
  10   3  -1   23.10    1.80
  10   3  -1   25.30    1.10
 -10   3   1   24.10    0.90
 -10   3   1   21.20    1.80
  10   3  -1   24.90    1.30
  -9  -3   1    3.90    0.50
   9  -3  -1    3.30    0.60
  -9  -3   1    3.60    0.70
  -9  -3   1    3.90    0.50
  -9  -3   1    3.50    0.60
   9  -3  -1    4.00    1.00
   9  -3  -1    5.80    1.50
  -9  -3   1    4.00    0.90
  -9  -3   1    3.90    1.00
   9   3  -1    5.20    0.70
   9   3  -1    4.40    0.70
  -9   3   1    4.10    1.10
   9   3  -1    4.00    0.60
  -9   3   1    5.60    0.70
  -9   3   1    4.80    0.50
   9   3  -1    4.60    0.50
   9   3  -1    4.60    0.60
  -9   3   1    5.60    0.40
  -9   3   1   13.60   12.30
  -8  -3   1   27.90    1.30
  -8  -3   1   25.20    1.50
  -8  -3   1   25.50    1.40
  -8  -3   1   28.70    1.90
   8  -3  -1   29.80    2.00
  -8  -3   1   28.30    2.10
   8  -3  -1   28.20    1.50
  -8  -3   1   28.30    1.30
   8   3  -1   31.50    1.40
  -8   3   1   34.30    1.50
   8   3  -1   31.30    1.40
   8   3  -1   30.30    1.50
   8   3  -1   30.00    1.60
  -8   3   1   29.90    1.40
  -8   3   1   31.10    1.40
  -8   3   1   30.00    1.30
   8   3  -1   31.00    1.50
  -8   3   1   29.50    1.60
  -7  -3   1   76.89    5.70
   7  -3  -1   65.29    3.20
  -7  -3   1   68.29    4.80
  -7  -3   1   88.69    5.50
  -7  -3   1   87.09    4.70
   7  -3  -1   74.09    3.70
  -7   3   1   69.59    4.50
  -7   3   1   77.69    2.90
  -7   3   1   88.49    4.00
  -7   3   1   69.09    6.00
   7   3  -1   75.09    2.90
  -7   3   1   78.69    3.00
  -7   3   1   75.39    3.00
  -7   3   1   77.49    2.90
   7   3  -1   72.59    2.90
   7   3  -1   77.89    3.00
   7   3  -1   64.09    4.30
  -6  -3   1   15.50    3.30
   6  -3  -1   16.70    1.40
  -6  -3   1   14.70    2.00
  -6  -3   1   17.70    2.50
   6  -3  -1   10.70    3.10
   6   3  -1   17.80    1.00
  -6   3   1   18.60    2.20
   6   3  -1   19.00    0.90
  -6   3   1   18.80    0.90
  -6   3   1   18.20    2.20
   6   3  -1   21.10    2.30
  -6   3   1   18.80    1.00
  -6   3   1   18.00    2.10
   6   3  -1   14.70    2.10
  -6   3   1   18.50    1.00
  -5  -3   1  151.38    6.20
  -5  -3   1  148.19    7.00
   5  -3  -1  144.59    6.00
   5  -3  -1  152.78    6.70
  -5  -3   1  153.68    7.00
  -5   3   1  154.68    6.50
   5   3  -1  169.98    7.80
   5   3  -1  152.58    5.40
  -5   3   1  155.58    5.50
  -5   3   1  157.08    6.80
  -5   3   1  150.38    5.40
  -5   3   1  155.28    6.80
   5   3  -1  145.89    6.20
  -4  -3   1   31.80    2.10
  -4  -3   1   34.20    2.60
  -4  -3   1   34.80    2.70
   4  -3  -1   33.10    2.00
   4   3  -1   34.00    1.30
  -4   3   1   34.60    2.40
  -4   3   1   35.50    2.20
   4   3  -1   35.50    2.30
  -4   3   1   35.30    2.60
  -4   3   1   34.80    1.50
  -4   3   1   35.00    1.40
  -3  -3   1  193.48    8.10
  -3  -3   1  205.38    8.00
  -3  -3   1  185.78    7.40
  -3   3   1  197.48    7.50
   3   3  -1  193.58    7.40
   3   3  -1  203.28    7.60
  -3   3   1  198.28    6.80
  -3   3   1  203.68    8.10
  -3   3   1  207.18    8.00
  -2  -3   1 1429.66   49.60
  -2  -3   1 1501.15   49.40
   2  -3  -1 1404.26   48.50
  -2  -3   1 1456.35   48.90
   2   3  -1 1488.75   50.49
  -2   3   1 1567.74   51.49
  -2   3   1 1473.45   50.49
   2   3  -1 1491.45   50.49
  -2   3   1 1491.45   50.99
   1  -3  -1  296.07   10.90
  -1  -3   1  300.47   11.20
  -1  -3   1  305.67   10.80
   1  -3  -1  298.97   11.20
   1  -3  -1  307.07   10.70
  -1  -3   1  299.27   11.30
  -1   3   1  300.37   10.80
   1   3  -1  300.27   10.70
   1   3  -1  320.87   11.20
  -1   3   1  312.67   11.20
   1   3  -1  300.27   10.60
  -1   3   1  308.57   11.20
   1   3  -1  303.37   10.70
   0  -3  -1 1072.89   36.20
   0  -3   1 1008.20   35.80
   0  -3  -1 1049.30   35.50
   0  -3   1 1043.10   35.40
   0  -3   1 1061.49   35.90
   0  -3  -1 1053.99   35.70
   0   3  -1 1131.69   37.80
   0   3   1 1104.69   37.40
   0   3  -1 1093.59   37.00
   0   3   1 1074.29   36.80
   0   3  -1 1117.39   37.40
   0   3  -1 1065.49   36.90
   0   3   1 1106.09   37.10
   0   3   1 1115.99   37.40
  -1  -3  -1  637.44   22.20
  -1  -3  -1  646.94   22.90
   1  -3   1  628.84   21.80
  -1  -3  -1  640.14   22.10
  -1   3  -1  660.83   22.50
   1   3   1  629.54   23.10
  -1   3  -1  664.13   23.00
   1   3   1  651.23   22.30
   1   3   1  655.73   22.40
   1   3   1  651.43   22.20
  -1   3  -1  639.84   22.00
  -2  -3  -1   39.80    2.40
  -2  -3  -1   41.20    2.80
  -2  -3  -1   41.70    2.20
   2  -3   1   41.40    2.30
  -2   3  -1   40.60    1.90
   2   3   1   43.10    2.30
  -2   3  -1   40.70    1.50
   2   3   1   41.00    2.40
   2   3   1   43.10    2.20
  -2   3  -1   41.70    2.60
  -2   3  -1   39.70    2.30
  -3  -3  -1  605.44   21.90
  -3  -3  -1  607.64   21.00
   3  -3   1  579.94   20.70
   3   3   1  664.83   22.40
   3   3   1  625.84   22.20
  -3   3  -1  655.93   22.90
  -3   3  -1  620.04   21.70
   3   3   1  597.94   21.20
  -3   3  -1  644.54   21.30
  -3   3  -1  640.14   22.40
  -3   3  -1  643.24   22.80
   4   3   1  300.57   10.70
  -4   3  -1  311.57   11.90
  -4   3  -1  311.47   10.80
  -4   3  -1  316.87   12.30
   4   3   1  317.47   11.90
  -4   3  -1  338.57   11.10
  -4   3  -1  319.67   11.30
   4   3   1  304.87   10.60
   4   3   1  310.87   11.70
  -4   3  -1  323.27   12.40
  -5   3  -1  256.17    8.90
   5   3   1  240.88    9.70
   5   3   1  243.48    8.50
   5   3   1  258.07   10.00
  -5   3  -1  243.98    8.50
  -5   3  -1  244.58   10.20
  -5   3  -1  242.08   10.20
  -5   3  -1  247.88    9.90
  -5   3  -1  245.18    8.60
   5   3   1  248.88    9.10
  -6  -3  -1   65.89    4.30
   6  -3   1   64.99    3.30
  -6  -3  -1   71.09    6.60
  -6   3  -1   69.89    2.70
  -6   3  -1   63.59    4.40
   6   3   1   65.69    2.60
   6   3   1   66.39    2.70
  -6   3  -1   68.09    2.60
   6   3   1   64.89    4.30
  -6   3  -1   68.09    4.30
  -7  -3  -1  245.58    8.60
  -7  -3  -1  235.98    8.80
   7  -3   1  236.08    9.50
   7  -3   1  234.98    8.50
  -7  -3  -1  231.08    8.80
  -7  -3  -1  242.48    9.40
  -7   3  -1  264.97    9.40
  -7   3  -1  252.77    9.00
   7   3   1  269.07    9.00
  -7   3  -1  262.67    9.20
  -7   3  -1  261.47    9.10
  -7   3  -1  259.77    8.90
  -7   3  -1  247.38   10.00
   7   3   1  262.97    9.20
   8  -3   1   14.10    1.40
  -8   3  -1   15.50    0.90
   8   3   1   18.00    1.40
   8   3   1   16.40    1.10
  -8   3  -1   15.20    1.10
  -8   3  -1   18.10    1.70
   8   3   1   15.70    0.90
   8   3   1   16.40    1.70
  -9  -3  -1   13.00    1.10
   9  -3   1   12.00    1.30
  -9  -3  -1   12.10    0.80
   9  -3   1   12.20    0.90
  -9  -3  -1   14.00    1.30
  -9  -3  -1   13.40    0.90
  -9   3  -1   14.00    0.60
   9   3   1   14.00    1.20
  -9   3  -1   14.10    0.90
  -9   3  -1   10.40    1.40
   9   3   1   14.10    1.00
   9   3   1   14.20    0.90
   9   3   1   12.60    1.20
 -10  -3  -1   32.10    1.80
  10  -3   1   33.60    1.50
  10  -3   1   32.30    3.00
 -10  -3  -1   33.20    1.70
  10  -3   1   29.70    1.90
 -10  -3  -1   32.80    1.80
  10   3   1   36.00    1.60
  10   3   1   34.10    1.50
 -10   3  -1   36.80    1.60
  10   3   1   36.50    1.40
  10   3   1   35.40    1.60
  10   3   1   38.30    1.60
  11  -3   1   15.50    0.70
  11  -3   1   12.60    1.10
 -11  -3  -1   13.80    0.80
 -11  -3  -1   14.40    0.90
  11  -3   1   13.50    1.40
  11   3   1   19.20    0.80
 -11   3  -1   21.50    1.00
  11   3   1   17.00    0.90
  11   3   1   18.70    0.90
  10  -4  -1   50.59    2.60
 -10  -4   1   57.89    2.20
  10  -4  -1   68.39    4.00
 -10  -4   1   66.89    3.20
  10  -4  -1   57.09    2.70
 -10  -4   1   58.39    2.20
  10  -4  -1   57.39    2.90
  10   4  -1   63.99    2.70
 -10   4   1   60.59    2.40
 -10   4   1   71.59    2.80
  10   4  -1   63.49    2.60
  10   4  -1   67.99    2.40
 -10   4   1   65.49    2.30
   9  -4  -1  102.39    4.40
  -9  -4   1   96.69    4.40
   9  -4  -1  102.59    3.80
  -9  -4   1  105.09    3.70
   9  -4  -1   98.39    5.00
  -9  -4   1  100.79    4.20
   9  -4  -1  101.09    4.40
  -9  -4   1   98.29    3.70
  -9   4   1  112.19    4.20
   9   4  -1  121.09    4.30
  -9   4   1  113.69    4.30
   9   4  -1  121.79    5.00
  -9   4   1  117.59    4.10
  -9   4   1  114.89    4.20
  -9   4   1  116.69    4.40
   9   4  -1  116.69    4.20
   9   4  -1  115.39    4.10
   9   4  -1  118.09    4.30
  -8  -4   1   69.39    2.80
   8  -4  -1   65.09    3.70
  -8  -4   1   69.59    3.30
   8  -4  -1   69.79    2.80
  -8  -4   1   71.99    3.50
   8  -4  -1   68.49    4.20
   8  -4  -1   71.49    3.60
  -8  -4   1   70.79    2.80
  -8  -4   1   71.19    2.80
  -8   4   1   77.59    3.20
   8   4  -1   80.09    3.10
   8   4  -1   82.19    3.00
   8   4  -1   81.19    3.10
  -8   4   1   79.29    3.00
  -8   4   1   79.89    2.90
  -8   4   1   75.89    3.00
  -8   4   1   78.39    3.10
   7  -4  -1   27.50    1.40
  -7  -4   1   26.30    1.80
  -7  -4   1   26.80    1.50
  -7  -4   1   26.90    2.10
   7  -4  -1   26.00    2.10
  -7  -4   1   28.40    1.50
   7  -4  -1   26.20    2.50
  -7  -4   1   28.30    1.60
  -7  -4   1   28.00    1.50
   7  -4  -1   29.50    2.10
   7   4  -1   32.10    1.50
  -7   4   1   33.70    1.70
  -7   4   1   31.80    1.50
   7   4  -1   30.60    1.50
  -7   4   1   31.60    1.30
  -7   4   1   31.40    1.40
  -6  -4   1  121.49    5.50
   6  -4  -1  115.49    5.90
  -6   4   1  142.89    5.10
  -6   4   1  132.39    5.80
  -6   4   1  149.79    5.10
  -6   4   1  144.49    5.20
  -6   4   1  140.19    5.00
   6   4  -1  138.19    5.10
   6   4  -1  143.79    5.00
  -5  -4   1   23.30    2.40
   5  -4  -1   17.00    1.50
  -5  -4   1   16.30    2.70
  -5   4   1   19.00    2.70
  -5   4   1   19.80    1.00
  -5   4   1   15.80    2.60
   5   4  -1   18.80    0.90
   5   4  -1   18.50    1.00
   5   4  -1   16.50    2.90
  -5   4   1   18.60    1.00
  -5   4   1   19.50    1.00
   4  -4  -1  144.79    5.90
  -4  -4   1  137.39    8.70
  -4  -4   1  140.09    7.00
  -4  -4   1  149.39    6.20
  -4   4   1  151.88    5.40
  -4   4   1  152.98    5.30
  -4   4   1  170.18    8.60
   4   4  -1  143.69    6.30
   4   4  -1  144.19    5.20
  -4   4   1  153.48    7.10
   4   4  -1  150.28    6.50
  -4   4   1  149.39    5.40
  -3  -4   1   12.10    1.50
  -3  -4   1   13.90    2.30
   3  -4  -1   11.80    1.20
  -3  -4   1    9.70    2.00
   3   4  -1   11.20    1.90
  -3   4   1   13.00    2.00
  -3   4   1   13.20    2.00
   3   4  -1   13.60    1.60
  -3   4   1   13.20    0.70
  -3   4   1   13.10    0.70
  -3   4   1   13.10    1.90
   3   4  -1   14.50    1.80
  -2  -4   1  253.17   10.40
  -2  -4   1  250.17    9.70
  -2  -4   1  270.37   10.60
   2  -4  -1  247.98    9.40
  -2   4   1  251.37    9.10
   2   4  -1  270.17    9.70
  -2   4   1  272.57   10.50
  -2   4   1  275.97    9.00
  -2   4   1  262.77   10.40
   2   4  -1  257.07   10.10
   2   4  -1  264.27   10.40
  -1  -4   1   84.39    4.30
   1  -4  -1   72.89    3.40
   1  -4  -1   81.09    3.90
  -1  -4   1   78.19    3.40
  -1  -4   1   81.69    3.70
  -1  -4   1   77.79    4.20
   1  -4  -1   77.89    3.60
   1   4  -1   84.59    3.60
  -1   4   1   84.49    4.20
   1   4  -1   85.39    4.40
   1   4  -1   85.99    4.40
   1   4  -1   83.29    4.10
  -1   4   1   88.69    4.30
   0  -4  -1  185.78    7.50
   0  -4   1  171.08    6.80
   0  -4   1  185.58    7.00
   0  -4  -1  189.58    8.00
   0  -4   1  181.28    7.70
   0  -4  -1  185.38    7.20
   0   4  -1  190.78    8.00
   0   4   1  184.08    7.40
   0   4  -1  192.68    8.00
   0   4  -1  196.88    7.10
   0   4  -1  191.08    7.70
   0   4   1  193.48    7.70
   0   4   1  186.08    7.60
   1  -4   1  386.46   14.30
  -1  -4  -1  379.66   13.40
   1  -4   1  334.07   12.70
   1  -4   1  336.87   12.70
  -1  -4  -1  367.96   13.50
  -1  -4  -1  358.86   14.20
  -1   4  -1  374.26   13.90
  -1   4  -1  369.76   12.60
   1   4   1  371.46   13.60
  -1   4  -1  369.86   12.80
  -1   4  -1  384.86   14.40
   1   4   1  379.96   13.70
  -1   4  -1  387.46   14.40
   2  -4   1   87.59    3.90
  -2  -4  -1   91.79    5.20
  -2  -4  -1   98.19    4.40
  -2   4  -1   96.29    4.60
  -2   4  -1   95.99    3.70
  -2   4  -1   99.99    5.20
   2   4   1   98.59    4.30
  -2   4  -1   98.79    3.60
  -2   4  -1   99.99    5.20
   2   4   1   92.59    4.40
   2   4   1   99.09    4.70
  -3  -4  -1  106.49    7.40
  -3  -4  -1   88.79    5.60
  -3   4  -1  114.19    6.90
   3   4   1  107.79    3.70
  -3   4  -1  106.89    5.10
  -3   4  -1  107.69    4.00
  -3   4  -1  100.19    5.80
  -3   4  -1  112.49    3.90
   3   4   1  104.59    5.20
  -4  -4  -1  130.49    6.70
  -4  -4  -1  129.99    7.80
   4  -4   1  110.49    5.10
   4   4   1  123.49    4.50
  -4   4  -1  134.69    7.30
  -4   4  -1  118.29    5.90
   4   4   1  128.99    6.40
  -4   4  -1  128.99    4.50
  -4   4  -1  126.89    4.70
  -4   4  -1  137.59    8.20
  -4   4  -1  121.79    4.60
   4   4   1  121.39    6.10
  -5  -4  -1  199.68    8.00
  -5  -4  -1  214.38    7.70
  -5  -4  -1  209.18    8.10
   5  -4   1  208.78    9.40
  -5  -4  -1  207.78    7.80
   5  -4   1  204.28   10.30
   5  -4   1  223.58    8.30
   5  -4   1  219.48    8.70
   5  -4   1  197.38    9.70
  -5  -4  -1  230.48    7.80
   5  -4   1  189.38    7.60
  -5  -4  -1  227.78    8.50
  -5  -4  -1  212.28    7.70
   5   4   1  239.08    8.40
   5   4   1  237.28   10.40
  -5   4  -1  241.88    8.50
  -5   4  -1  258.27    9.10
  -6  -4  -1  167.98    7.10
  -6  -4  -1  175.88    6.50
  -6  -4  -1  177.18    6.80
  -6  -4  -1  176.08    6.50
   6  -4   1  171.98    6.30
   6  -4   1  176.58    7.90
   6  -4   1  170.58    7.40
   6  -4   1  166.78    8.00
  -6  -4  -1  173.18    6.70
  -6  -4  -1  176.78    6.50
  -6  -4  -1  174.48    6.60
   6  -4   1  176.38    6.70
   6  -4   1  184.48    7.10
  -6   4  -1  201.48    7.00
  -6   4  -1  197.78    6.90
   6   4   1  194.38    7.00
   6   4   1  198.98    7.00
  -6   4  -1  194.18    7.30
   6   4   1  198.98    6.90
  -6   4  -1  201.28    7.00
  -6   4  -1  198.68    7.10
   7  -4   1   76.19    4.30
  -7  -4  -1   74.09    3.10
   7  -4   1   75.69    3.60
   7  -4   1   71.19    4.30
  -7  -4  -1   72.39    3.70
  -7  -4  -1   75.69    3.10
  -7  -4  -1   73.29    3.20
  -7  -4  -1   71.19    3.40
  -7  -4  -1   75.39    3.10
   7  -4   1   75.29    4.00
   7  -4   1   75.69    3.00
  -7   4  -1   83.89    3.10
   7   4   1   84.09    3.20
  -7   4  -1   83.39    3.20
  -7   4  -1   82.69    3.20
  -7   4  -1   84.19    3.40
  -8  -4  -1  116.79    4.70
  -8  -4  -1  118.69    4.40
  -8  -4  -1  120.59    4.40
   8  -4   1  110.99    5.50
   8  -4   1  104.49    6.90
  -8  -4  -1  120.19    5.10
   8  -4   1  122.79    4.40
   8  -4   1  117.19    4.90
   8  -4   1  116.29    5.20
  -8   4  -1  133.69    4.60
   8   4   1  132.99    4.80
  -8   4  -1  131.89    4.80
  -8   4  -1  132.09    4.90
  -8   4  -1  132.49    5.00
  -8   4  -1  135.99    4.80
   8   4   1  131.69    4.80
   8   4   1  139.09    4.90
   8   4   1  130.69    4.70
   9  -4   1   72.49    2.80
   9  -4   1   71.59    3.20
  -9  -4  -1   70.69    2.80
  -9  -4  -1   70.99    3.20
   9  -4   1   72.69    3.40
  -9  -4  -1   76.09    3.10
  -9  -4  -1   74.19    3.10
  -9   4  -1   79.79    2.90
   9   4   1   78.99    3.10
   9   4   1   78.59    3.00
   9   4   1   80.19    2.90
  -9   4  -1   77.79    2.80
  -9   4  -1   80.59    3.10
   9   4   1   78.29    3.00
   9   4   1   82.09    3.00
 -10  -4  -1    7.70    0.50
  10  -4   1    8.40    1.30
 -10  -4  -1    9.00    0.70
 -10  -4  -1    8.10    0.70
  10  -4   1    8.70    0.80
  10  -4   1    7.00    0.50
  10   4   1    9.90    0.60
  10   4   1    8.90    0.50
 -10   4  -1    9.70    0.60
   9  -5  -1   52.19    2.60
  -9  -5   1   47.90    1.80
  -9  -5   1   46.20    2.20
  -9  -5   1   49.00    1.80
   9  -5  -1   46.90    2.60
   9  -5  -1   46.10    2.20
  -9  -5   1   47.00    2.10
  -9   5   1   55.19    1.90
  -9   5   1   53.69    2.10
   9   5  -1   52.39    2.20
  -9   5   1   53.29    2.00
  -8  -5   1   33.80    1.50
  -8  -5   1   32.70    1.50
   8  -5  -1   33.90    2.00
   8  -5  -1   31.30    2.30
  -8  -5   1   31.40    1.70
  -8  -5   1   34.10    1.80
   8  -5  -1   32.70    2.00
  -8  -5   1   33.50    2.00
   8   5  -1   35.70    1.70
   8   5  -1   35.90    1.50
  -8   5   1   37.00    1.40
  -8   5   1   37.80    1.60
   8   5  -1   35.80    1.60
  -8   5   1   36.40    1.50
   8   5  -1   39.30    1.50
  -8   5   1   40.00    1.80
  -8   5   1   36.80    1.60
   7  -5  -1   10.10    1.20
   7  -5  -1    8.70    1.30
  -7  -5   1    9.30    0.80
  -7  -5   1   10.60    1.20
  -7  -5   1    8.00    1.00
   7  -5  -1    7.90    1.50
  -7  -5   1   11.40    1.30
  -7  -5   1    9.50    0.80
   7  -5  -1    9.40    1.20
  -7   5   1   12.10    0.80
  -7   5   1   10.50    0.70
   7   5  -1   10.70    0.70
  -7   5   1   10.40    0.70
   7   5  -1   10.80    0.80
  -7   5   1   11.20    0.60
   7   5  -1   10.40    0.80
  -6  -5   1  168.08    6.30
  -6  -5   1  172.88    6.50
  -6  -5   1  176.58    6.30
   6  -5  -1  182.48    6.60
  -6  -5   1  168.98    6.70
   6  -5  -1  174.98    7.20
  -6  -5   1  181.58    6.40
  -6  -5   1  171.28    7.00
   6  -5  -1  166.48    7.50
  -6  -5   1  168.48    6.40
   6  -5  -1  169.28    7.80
  -6   5   1  183.88    6.80
  -6   5   1  197.48    6.70
   6   5  -1  191.28    6.70
   6   5  -1  190.98    6.60
  -6   5   1  196.58    6.80
  -6   5   1  189.18    6.70
  -6   5   1  186.38    6.60
  -5  -5   1   22.70    1.40
   5  -5  -1   21.50    2.10
  -5  -5   1   20.50    1.30
  -5  -5   1   20.30    1.40
   5  -5  -1   21.60    2.20
  -5  -5   1   22.20    1.30
   5  -5  -1   20.80    1.70
   5  -5  -1   19.60    2.30
  -5  -5   1   20.40    1.30
  -5  -5   1   20.80    1.70
  -5  -5   1   23.50    1.40
   5  -5  -1   24.80    2.00
  -5  -5   1   22.20    1.50
  -5  -5   1   21.70    1.60
   5  -5  -1   21.10    1.50
   5   5  -1   23.80    1.20
   5   5  -1   25.90    1.20
  -5   5   1   24.60    1.40
  -5   5   1   22.80    1.10
  -5   5   1   23.20    1.20
  -5   5   1   24.10    1.20
  -4  -5   1   34.00    1.70
  -4  -5   1   33.50    2.20
  -4  -5   1   32.30    1.90
   4  -5  -1   33.90    2.00
  -4  -5   1   33.40    2.00
  -4  -5   1   33.70    1.80
   4  -5  -1   32.10    2.70
   4  -5  -1   31.90    2.20
  -4  -5   1   34.00    1.80
  -4  -5   1   33.10    1.70
   4  -5  -1   31.40    2.70
  -4  -5   1   34.40    2.00
  -4  -5   1   35.10    2.10
  -4  -5   1   32.20    1.80
   4  -5  -1   32.30    2.00
   4  -5  -1   33.70    2.20
   4  -5  -1   31.20    2.20
  -4  -5   1   31.80    2.20
  -4  -5   1   34.20    1.80
  -4   5   1   37.50    1.60
  -4   5   1   38.10    1.60
  -4   5   1   37.40    1.60
   3  -5  -1   48.30    2.60
   3  -5  -1   45.30    3.60
  -3  -5   1   44.30    2.80
  -3  -5   1   46.10    2.60
   3  -5  -1   46.40    3.60
  -3  -5   1   46.00    2.40
  -3  -5   1   46.80    2.80
   3  -5  -1   48.90    2.90
   3  -5  -1   42.90    2.40
  -3  -5   1   46.80    3.00
  -3  -5   1   51.89    3.00
  -3  -5   1   46.70    2.60
  -3  -5   1   50.09    2.90
  -3  -5   1   43.10    2.20
   3  -5  -1   50.19    2.60
  -3   5   1   54.69    2.10
   2  -5  -1  211.38    9.20
  -2  -5   1  203.68    7.60
   2  -5  -1  192.78    8.80
  -2  -5   1  222.68    9.70
   2  -5  -1  188.38    8.20
  -2  -5   1  189.18    7.90
  -2  -5   1  201.78    9.30
  -2  -5   1  192.68    7.30
   2  -5  -1  220.68    8.40
  -2  -5   1  180.38    7.80
  -2  -5   1  196.08    7.20
  -2  -5   1  203.98    9.00
  -2  -5   1  198.18    7.60
  -2  -5   1  176.18    7.50
   2  -5  -1  201.28    8.00
   2  -5  -1  190.78    7.30
  -2  -5   1  230.08   11.50
  -2   5   1  207.78    7.40
  -2   5   1  214.78    9.50
  -2   5   1  218.18    7.40
  -1  -5   1   24.60    2.30
  -1  -5   1   28.70    3.20
   1  -5  -1   22.50    2.40
  -1   5   1   28.70    1.10
  -1   5   1   28.70    4.00
   0  -5   1  102.09    4.50
   0  -5   1  122.89    6.00
   0  -5  -1  115.99    5.30
   0  -5   1  114.79    5.10
   0   5  -1  133.89    7.60
   0   5  -1  136.89    7.20
  -1  -5  -1  129.39    7.20
  -1  -5  -1  142.59    6.80
   1  -5   1  125.09    5.30
  -1   5  -1  147.59    4.90
  -1   5  -1  138.99    4.80
  -1   5  -1  124.09    6.90
  -1   5  -1  131.09    7.00
  -2  -5  -1   11.50    1.10
   2  -5   1   12.50    1.00
  -2  -5  -1   10.80    1.30
  -2  -5  -1   10.70    1.00
  -2  -5  -1   13.00    1.20
   2  -5   1   11.60    0.90
  -2  -5  -1   11.10    0.90
   2  -5   1   11.50    1.50
   2  -5   1   13.30    1.30
   2  -5   1   11.50    1.40
   2  -5   1   11.60    1.70
  -2  -5  -1   12.30    1.40
   2  -5   1   12.00    1.40
  -2  -5  -1   11.00    1.00
  -2  -5  -1   13.50    1.10
  -2  -5  -1   13.40    1.50
  -2  -5  -1   12.80    1.20
   2  -5   1   13.20    1.70
  -2  -5  -1   11.40    1.10
  -2   5  -1   14.40    0.70
  -2   5  -1   13.20    0.80
  -3  -5  -1  378.56   13.40
   3  -5   1  371.76   14.40
  -3  -5  -1  399.36   14.20
  -3  -5  -1  398.66   13.60
   3  -5   1  376.86   13.30
   3  -5   1  379.06   15.00
  -3  -5  -1  391.16   14.00
  -3  -5  -1  382.06   13.60
   3  -5   1  374.66   14.00
  -3  -5  -1  404.86   14.00
   3  -5   1  385.76   13.50
  -3  -5  -1  385.26   13.50
   3  -5   1  360.86   15.10
  -3  -5  -1  387.06   14.00
   3  -5   1  362.26   14.10
   3  -5   1  364.56   14.10
  -3  -5  -1  385.56   13.60
  -3  -5  -1  375.66   13.70
  -3  -5  -1  387.06   13.30
  -3  -5  -1  371.46   13.60
  -3   5  -1  426.86   14.90
  -3   5  -1  437.36   15.00
  -3   5  -1  452.05   14.90
   4  -5   1  158.08    7.00
   4  -5   1  163.98    6.70
  -4  -5  -1  163.98    6.50
   4  -5   1  169.38    7.40
   4  -5   1  160.88    7.80
  -4  -5  -1  171.28    6.30
  -4  -5  -1  163.08    6.70
  -4  -5  -1  164.28    6.40
  -4  -5  -1  185.48    6.30
  -4  -5  -1  170.48    6.20
  -4  -5  -1  149.19    6.40
   4  -5   1  164.08    7.10
  -4  -5  -1  162.88    6.30
   4  -5   1  162.48    6.70
  -4  -5  -1  182.98    6.70
  -4  -5  -1  158.68    6.20
   4   5   1  190.08    6.50
  -4   5  -1  190.98    6.70
  -4   5  -1  188.18    6.70
  -4   5  -1  190.48    6.80
  -5  -5  -1  215.18    8.70
  -5  -5  -1  174.88    7.70
  -5  -5  -1  224.38    7.70
   5  -5   1  202.58    8.60
   5  -5   1  190.28    8.90
   5  -5   1  206.38    7.80
   5  -5   1  188.18    8.70
   5  -5   1  198.58    8.00
  -5  -5  -1  188.88    7.50
  -5  -5  -1  193.78    7.60
  -5  -5  -1  192.18    7.80
   5  -5   1  197.88    7.90
  -5  -5  -1  226.68    7.80
  -5   5  -1  215.58    8.00
  -5   5  -1  226.38    8.00
   5   5   1  221.68    7.70
   5   5   1  219.88    8.20
  -5   5  -1  233.48    7.90
  -5   5  -1  227.28    7.80
  -5   5  -1  234.28    8.20
  -6  -5  -1   81.89    3.40
  -6  -5  -1   78.79    3.80
   6  -5   1   84.59    3.50
   6  -5   1   76.49    4.40
  -6  -5  -1   84.19    3.50
  -6  -5  -1   83.89    3.30
   6  -5   1   79.79    4.10
  -6  -5  -1   82.09    3.50
  -6  -5  -1   83.49    3.30
   6  -5   1   81.39    4.30
  -6  -5  -1   82.89    3.30
   6  -5   1   82.89    3.80
  -6   5  -1   93.19    3.40
   6   5   1   90.89    3.40
  -6   5  -1   89.29    3.20
  -6   5  -1   91.09    3.50
   6   5   1   88.59    3.40
  -6   5  -1   91.09    3.30
  -6   5  -1   86.19    3.50
   7  -5   1  113.69    4.80
  -7  -5  -1  115.69    4.30
   7  -5   1  113.89    5.20
   7  -5   1  113.09    5.00
  -7  -5  -1  113.99    4.80
  -7  -5  -1  117.49    4.50
  -7  -5  -1  118.29    4.30
  -7  -5  -1  113.29    4.30
  -7  -5  -1  114.79    4.30
   7  -5   1  109.69    5.20
  -7   5  -1  126.69    4.60
  -7   5  -1  123.39    4.60
  -7   5  -1  125.59    4.50
   7   5   1  127.19    4.40
  -7   5  -1  121.79    4.40
   7   5   1  125.69    4.50
   7   5   1  124.19    4.50
   8  -5   1  102.59    4.20
   8  -5   1   99.39    4.30
  -8  -5  -1  112.29    4.80
   8  -5   1   91.59    4.20
  -8  -5  -1  103.09    3.60
  -8  -5  -1  103.19    3.80
  -8  -5  -1   83.69    4.00
  -8  -5  -1  102.09    3.90
  -8   5  -1  109.99    4.10
  -8   5  -1  111.69    4.20
  -8   5  -1  115.99    4.00
   8   5   1  115.59    4.00
   8   5   1  108.59    4.10
   8   5   1  111.39    3.90
  -8   5  -1  117.59    3.90
  -9  -5  -1  125.69    4.50
   9  -5   1  135.99    5.10
  -9  -5  -1  138.49    4.60
  -9  -5  -1  109.89    5.00
   9   5   1  135.29    4.70
  -9   5  -1  147.49    5.00
  -9   5  -1  134.39    4.80
  -7  -6   1   63.59    2.40
  -7  -6   1   63.99    2.80
  -7  -6   1   64.99    2.40
  -7  -6   1   63.39    2.40
   7  -6  -1   62.09    3.10
   7  -6  -1   61.29    3.10
  -7  -6   1   61.39    2.50
   7  -6  -1   64.19    2.80
  -7   6   1   71.69    2.50
  -7   6   1   70.49    2.60
  -6  -6   1   16.40    0.90
   6  -6  -1   16.90    1.30
  -6  -6   1   16.50    1.30
   6  -6  -1   16.90    1.80
  -6  -6   1   16.20    0.90
  -6  -6   1   16.20    0.90
   6  -6  -1   16.50    1.40
  -6  -6   1   17.60    1.00
   6  -6  -1   16.20    1.60
  -6  -6   1   16.20    1.10
  -6   6   1   17.20    0.80
  -6   6   1   17.10    1.00
  -6   6   1   17.60    0.80
  -6   6   1   17.70    0.90
  -5  -6   1   36.80    1.60
  -5  -6   1   36.70    1.80
  -5  -6   1   36.10    1.80
  -5  -6   1   34.40    2.30
  -5  -6   1   35.00    1.90
  -5  -6   1   34.30    1.70
   5  -6  -1   36.30    1.90
  -5  -6   1   35.40    1.90
   5  -6  -1   37.10    2.40
   5  -6  -1   37.40    2.00
   5  -6  -1   37.40    2.60
   5  -6  -1   40.10    3.00
   5  -6  -1   37.70    2.30
  -5   6   1   37.20    1.60
  -5   6   1   40.00    1.60
  -5   6   1   35.00    1.60
  -5   6   1   38.90    1.50
   4  -6  -1  146.69    6.20
  -4  -6   1  149.19    5.80
   4  -6  -1  142.79    6.60
   4  -6  -1  144.19    6.00
  -4  -6   1  148.99    5.60
   4  -6  -1  152.28    5.90
  -4  -6   1  145.49    5.70
   4  -6  -1  150.08    6.30
  -4  -6   1  162.28    6.90
   4  -6  -1  143.09    6.70
  -4  -6   1  147.69    5.50
  -4  -6   1  147.49    5.60
  -4  -6   1  150.88    5.80
  -4  -6   1  146.49    5.50
  -4  -6   1  157.98    5.60
  -4  -6   1  172.18    6.80
  -4  -6   1  144.09    6.10
  -4  -6   1  167.18    6.00
  -4  -6   1  160.18    5.70
  -4   6   1  146.49    5.50
  -4   6   1  157.78    5.40
  -4   6   1  153.38    5.40
   3  -6  -1  163.38    7.20
  -3  -6   1  169.18    6.30
  -3  -6   1  162.78    6.50
   3  -6  -1  165.38    6.70
  -3  -6   1  159.28    6.10
  -3  -6   1  160.08    6.20
  -3  -6   1  164.58    6.00
  -3  -6   1  162.48    6.60
  -3  -6   1  167.98    6.10
   3  -6  -1  164.68    6.50
  -3  -6   1  172.28    6.50
   3  -6  -1  162.18    7.30
  -3  -6   1  169.28    6.80
  -3  -6   1  172.98    6.20
  -3  -6   1  158.58    5.90
   3  -6  -1  170.48    6.40
  -3  -6   1  161.58    6.30
  -3  -6   1  164.18    6.20
   3  -6  -1  163.68    6.70
  -3   6   1  166.68    5.90
  -3   6   1  169.58    5.80
  -2  -6   1   11.40    1.20
  -2  -6   1   11.40    1.30
   2  -6  -1   12.10    1.50
  -2  -6   1   10.80    1.10
   2  -6  -1   11.60    1.10
  -2  -6   1   12.10    1.00
  -2  -6   1   12.40    0.90
  -2  -6   1   12.00    1.00
   2  -6  -1   11.70    1.20
   2  -6  -1   11.80    1.60
  -2  -6   1   12.20    1.00
  -2  -6   1   13.00    1.10
   2  -6  -1   13.10    0.90
  -2  -6   1   11.90    1.00
  -2  -6   1   12.20    0.90
  -2  -6   1    9.70    1.40
   2  -6  -1   13.70    1.40
   2  -6  -1   13.10    1.20
  -2  -6   1   12.20    1.30
  -2  -6   1   11.50    1.40
  -2   6   1   13.20    0.70
  -2   6   1   14.20    0.80
   1  -6  -1   81.99    3.60
   1  -6  -1   81.49    4.10
  -1  -6   1   78.59    3.30
  -1  -6   1   79.49    3.40
   1  -6  -1   81.19    3.70
   1  -6  -1   78.99    3.70
   1  -6  -1   83.29    3.30
   1  -6  -1   81.69    3.40
   1  -6  -1   80.99    3.50
  -1  -6   1   77.79    4.30
   1  -6  -1   78.89    3.00
  -1  -6   1   78.59    3.40
  -1  -6   1   80.79    3.90
  -1  -6   1   80.89    3.60
   1  -6  -1   82.59    4.00
  -1  -6   1   79.99    3.20
  -1  -6   1   81.09    3.90
  -1  -6   1   79.69    3.60
  -1  -6   1   79.29    3.10
  -1  -6   1   83.59    3.50
  -1  -6   1   78.29    4.00
  -1  -6   1   77.19    3.30
   1  -6  -1   78.79    4.30
   0  -6  -1   87.79    3.70
   0  -6  -1   85.49    4.20
   0  -6   1   82.59    4.60
   0  -6   1   86.89    3.30
   0  -6   1   85.89    4.20
   0  -6   1   85.89    3.40
   0  -6   1   86.79    4.10
   0  -6   1   83.79    3.60
   0  -6   1   82.99    3.50
   0  -6  -1   84.59    3.70
   0  -6  -1   87.49    4.10
   0  -6   1   85.29    3.50
   0  -6  -1   86.59    3.90
   0  -6   1   87.89    3.70
   0  -6  -1   89.69    3.60
   0  -6  -1   87.79    4.50
   0  -6   1   90.89    3.70
   0  -6  -1   88.99    3.30
   0  -6   1   85.29    4.30
   0  -6  -1   85.39    3.50
   0  -6   1   86.39    3.90
   0  -6  -1   87.79    3.80
   0  -6  -1   88.99    3.70
   0  -6  -1   83.39    3.90
  -1  -6  -1   56.89    2.70
   1  -6   1   54.39    3.60
  -1  -6  -1   56.99    2.40
   1  -6   1   56.79    3.00
  -1  -6  -1   56.69    3.00
  -1  -6  -1   56.49    2.70
  -1  -6  -1   54.79    2.50
  -1  -6  -1   56.29    2.50
   1  -6   1   55.89    3.20
  -1  -6  -1   56.59    3.10
  -1  -6  -1   58.69    3.30
   1  -6   1   54.79    2.90
  -1  -6  -1   56.99    2.70
  -1  -6  -1   54.39    2.70
   1  -6   1   55.49    2.50
   1  -6   1   54.79    2.40
  -1  -6  -1   58.49    2.70
   1  -6   1   54.79    3.20
  -1   6  -1   62.09    2.30
   2  -6   1   99.29    4.80
  -2  -6  -1  100.89    4.30
  -2  -6  -1  100.79    4.20
   2  -6   1   98.29    4.50
  -2  -6  -1  102.39    3.90
   2  -6   1  100.99    4.50
  -2  -6  -1  104.09    4.20
   2  -6   1   97.79    4.70
   2  -6   1   99.69    5.30
  -2  -6  -1  102.19    4.00
   2  -6   1   96.49    3.90
  -2  -6  -1  103.09    4.20
  -2  -6  -1  102.39    4.30
   2  -6   1   98.99    4.30
  -2  -6  -1   96.29    3.90
  -2  -6  -1  107.89    4.80
   2  -6   1  100.99    4.00
  -2  -6  -1  101.19    4.00
  -2  -6  -1  105.99    4.60
  -2  -6  -1  101.19    4.40
  -2   6  -1  102.19    3.60
  -2   6  -1  102.69    3.70
  -3  -6  -1   57.09    2.60
  -3  -6  -1   54.89    2.40
  -3  -6  -1   60.79    2.60
  -3  -6  -1   57.79    2.90
  -3  -6  -1   59.09    2.60
   3  -6   1   57.09    2.80
  -3  -6  -1   54.09    2.40
  -3  -6  -1   57.59    2.80
   3  -6   1   56.69    3.20
  -3  -6  -1   65.69    3.10
   3  -6   1   55.79    3.60
  -3  -6  -1   62.59    2.80
  -3  -6  -1   56.39    2.80
   3  -6   1   54.79    3.10
  -3  -6  -1   58.09    2.70
   3  -6   1   56.39    2.90
  -3  -6  -1   56.09    2.40
   3  -6   1   56.29    3.10
  -3   6  -1   59.89    2.30
  -3   6  -1   56.29    2.30
  -3   6  -1   58.99    2.30
   4  -6   1  104.59    4.10
   4  -6   1   96.39    4.50
  -4  -6  -1   93.69    3.90
   4  -6   1  103.19    6.40
  -4  -6  -1   82.39    3.90
  -4  -6  -1   97.79    4.10
   4  -6   1   92.29    4.20
  -4  -6  -1   89.29    4.10
  -4  -6  -1   89.79    3.90
   4  -6   1  107.79    4.50
   4  -6   1   86.19    4.70
  -4   6  -1   99.39    3.60
  -4   6  -1   98.49    3.70
  -4   6  -1  105.29    3.60
  -4   6  -1   98.49    3.70
   5  -6   1   27.30    1.70
   5  -6   1   26.80    2.20
  -5  -6  -1   27.30    1.40
  -5  -6  -1   27.60    1.50
   5  -6   1   24.20    1.80
  -5  -6  -1   27.10    1.30
  -5  -6  -1   27.20    1.40
   5  -6   1   28.20    1.90
  -5  -6  -1   27.40    1.70
   5  -6   1   27.70    1.50
   5  -6   1   30.20    2.30
  -5  -6  -1   27.80    1.40
  -5   6  -1   29.50    1.20
  -5   6  -1   28.30    1.20
  -5   6  -1   28.90    1.30
  -5   6  -1   29.80    1.30
   6  -6   1   39.40    2.30
  -6  -6  -1   44.70    1.90
   6  -6   1   41.30    2.50
   6  -6   1   43.40    2.30
  -6  -6  -1   42.70    1.90
  -6  -6  -1   50.89    2.20
  -6  -6  -1   47.90    2.30
   6  -6   1   41.90    2.20
  -6   6  -1   46.40    1.70
  -6   6  -1   48.10    2.00
  -6   6  -1   46.00    1.80
  -7  -6  -1   12.90    0.70
  -7  -6  -1   13.80    0.90
   7  -6   1   12.80    1.00
   7  -6   1   12.10    1.20
  -7  -6  -1   14.90    0.80
   7  -6   1   13.20    1.20
  -7  -6  -1   13.50    0.70
  -7   6  -1   13.50    0.60
  -7   6  -1   14.00    0.60
   5  -7  -1   27.50    1.60
   5  -7  -1   28.90    1.40
   5  -7  -1   31.20    1.70
  -5  -7   1   27.00    1.40
  -5  -7   1   28.50    1.20
  -5  -7   1   28.60    1.20
  -4  -7   1   56.19    2.50
   4  -7  -1   58.19    2.60
   4  -7  -1   56.09    2.70
   4  -7  -1   58.59    2.70
  -4  -7   1   59.39    2.30
  -4  -7   1   56.69    2.20
   4  -7  -1   65.69    2.50
  -4  -7   1   56.29    2.30
  -4  -7   1   59.69    2.20
   3  -7  -1   31.20    2.00
   3  -7  -1   31.00    1.90
   3  -7  -1   33.00    1.60
  -3  -7   1   33.00    1.40
   3  -7  -1   39.10    2.10
   3  -7  -1   35.70    1.70
  -3  -7   1   34.50    1.70
   3  -7  -1   34.80    2.10
  -3  -7   1   31.30    1.50
  -3  -7   1   27.10    1.90
  -2  -7   1   75.69    2.90
  -2  -7   1   77.19    3.30
  -2  -7   1   79.49    3.60
   2  -7  -1   75.79    3.00
  -2  -7   1   75.19    3.00
  -2  -7   1   84.59    3.80
   2  -7  -1   75.09    3.10
   2  -7  -1   79.39    3.30
  -2  -7   1   74.99    3.10
   2  -7  -1   76.29    3.60
   2  -7  -1   72.09    3.50
  -2  -7   1   72.99    3.10
  -2  -7   1   73.39    3.30
   2  -7  -1   72.79    3.20
   1  -7  -1   14.70    1.10
  -1  -7   1   12.00    0.90
  -1  -7   1   13.40    0.80
   1  -7  -1   13.50    1.00
  -1  -7   1   14.20    1.20
   1  -7  -1   16.00    1.20
  -1  -7   1   13.20    1.20
  -1  -7   1   13.80    1.50
   1  -7  -1   14.50    1.20
  -1  -7   1   14.70    1.00
   1  -7  -1   14.80    1.10
  -1  -7   1   14.20    1.30
   1  -7  -1   14.00    1.30
  -1  -7   1   14.70    0.90
   1  -7  -1   12.60    0.80
   0  -7  -1   47.40    2.50
   0  -7  -1   45.30    2.40
   0  -7  -1   45.60    2.30
   0  -7  -1   44.00    2.00
   0  -7   1   44.60    2.20
   0  -7   1   46.50    2.60
   0  -7   1   44.90    1.90
   0  -7  -1   46.90    2.20
   0  -7  -1   49.70    2.30
   0  -7  -1   43.00    2.10
   0  -7   1   46.60    2.40
   0  -7  -1   53.29    2.60
   0  -7   1   46.40    2.00
   0  -7   1   46.20    2.20
   1  -7   1   17.30    1.20
   1  -7   1   17.40    1.50
  -1  -7  -1   19.10    1.30
  -1  -7  -1   17.80    1.10
   1  -7   1   16.80    1.40
  -1  -7  -1   17.40    1.30
  -1  -7  -1   19.70    1.20
  -1  -7  -1   20.00    1.40
   1  -7   1   18.70    1.40
  -1  -7  -1   18.10    1.10
   1  -7   1   18.60    1.20
  -1  -7  -1   17.50    1.00
   2  -7   1  195.98    8.20
   2  -7   1  217.48    8.00
  -2  -7  -1  219.08    7.90
  -2  -7  -1  216.48    7.70
  -2  -7  -1  193.48    7.30
   2  -7   1  187.78    7.50
  -2  -7  -1  209.28    7.50
   2  -7   1  192.48    8.10
  -2  -7  -1  198.18    7.20
  -2  -7  -1  226.18    7.60
  -2  -7  -1  215.58    7.50
   2  -7   1  201.38    7.60
  -3  -7  -1   57.59    2.30
   3  -7   1   59.29    2.50
   3  -7   1   63.19    3.00
   3  -7   1   54.69    2.60
  -3  -7  -1   58.89    2.30
  -3  -7  -1   60.49    2.40
   3  -7   1   59.39    3.00
  -3  -7  -1   59.39    2.40
  -3  -7  -1   58.49    2.30
  -3  -7  -1   56.79    2.20
   3  -7   1   60.39    2.60
   4  -7   1   26.70    1.50
  -4  -7  -1   33.20    1.70
   4  -7   1   33.50    1.70
   4  -7   1   31.60    1.40
  -4  -7  -1   30.60    1.40
  -4  -7  -1   29.10    1.20
   4  -7   1   29.00    1.80
  -4  -7  -1   30.30    1.30
  -4  -7  -1   27.90    1.20
  -4   7  -1   30.70    1.20
 -12   0   2    2.60    0.50
  12   0  -2    1.90    0.40
 -12   0   2    2.20    0.40
 -11   0   2   17.50    1.80
 -11   0   2   22.50    1.20
  11   0  -2   20.80    1.30
  11   0  -2   24.00    1.30
 -11   0   2   22.90    1.30
  10   0  -2  669.43   22.90
 -10   0   2  682.63   23.40
 -10   0   2  662.63   22.90
 -10   0   2  664.83   22.90
  10   0  -2  674.93   22.50
   9   0  -2   33.90    2.30
   9   0  -2   37.10    1.90
  -9   0   2   36.50    2.10
  -9   0   2   36.20    1.90
   9   0  -2   36.00    1.50
   9   0  -2   10.80   19.10
  -9   0   2   34.50    1.80
  -8   0   2  530.45   19.80
   8   0  -2  545.65   18.30
   8   0  -2  539.45   19.50
  -8   0   2  540.45   19.60
  -8   0   2  535.25   18.90
  -7   0   2   68.89    3.50
  -7   0   2   70.29    3.80
   7   0  -2   72.29    3.50
  -7   0   2   71.09    3.20
   7   0  -2   67.59    2.70
   7   0  -2   69.89    2.70
   7   0  -2   73.69    3.60
   6   0  -2   68.59    3.20
   6   0  -2   58.99    3.00
   6   0  -2   73.19    3.30
  -6   0   2   71.69    3.00
  -6   0   2   72.69    3.30
  -6   0   2   73.79    3.50
   5   0  -2    7.80    1.00
  -4   0   2  748.23   25.70
   4   0  -2  746.13   25.50
  -4   0   2  751.52   25.40
  -4   0   2  779.02   25.60
   4   0  -2  735.83   25.50
   3   0  -2 1819.12   60.49
  -3   0   2 1839.02   60.59
  -3   0   2 1828.42   60.49
   3   0  -2 1788.32   60.59
  -3   0   2 1797.32   60.69
   2   0  -2 9999.00  334.77
   1   0  -2  302.47   10.70
  -1   0   2  320.17   10.80
  -1   0   2  314.27   10.70
   1   0  -2  317.87   10.80
   1   0  -2  328.17   10.80
   0   0  -2   83.79    3.10
   0   0  -2   83.39    3.00
   0   0   2   85.59    2.90
   1   0   2 1245.18   42.40
  -1   0  -2 1286.07   42.30
  -1   0  -2 1296.07   42.40
   1   0   2 1241.68   42.30
  -2   0  -2   25.40    1.30
  -2   0  -2   23.60    1.20
  -2   0  -2   24.70    1.20
   2   0   2   25.60    1.30
  -2   0  -2   24.40    1.30
  -3   0  -2   10.40    0.80
   3   0   2    9.30    0.80
  -3   0  -2   10.40    0.80
  -3   0  -2   10.30    1.00
  -3   0  -2   10.70    0.90
  -4   0  -2 1540.55   51.89
   4   0   2 1557.84   51.79
  -4   0  -2 1451.95   51.69
  -4   0  -2 1566.04   51.89
   4   0   2 1572.14   51.89
  -5   0  -2    2.00    1.20
   5   0   2    3.20    0.40
   5   0   2    0.70    1.00
   5   0   2    2.00    0.70
  -5   0  -2    5.70    1.00
   5   0   2    1.40    0.40
   5   0   2    4.60    1.00
  -5   0  -2    2.70    0.60
   6   0   2   14.70    1.30
  -6   0  -2   17.80    2.30
   6   0   2   14.00    0.90
   6   0   2   12.90    0.80
  -6   0  -2   14.90    1.20
   6   0   2    8.90    1.80
  -6   0  -2   12.50    1.60
  -6   0  -2   13.00    1.80
   7   0   2    0.90    1.40
  -7   0  -2   -0.40    1.30
   7   0   2    2.10   15.00
   7   0   2    1.20    0.90
   7   0   2    2.00    3.00
  -8   0  -2  253.47    9.20
   8   0   2  248.28    8.70
   8   0   2  251.07    9.00
   8   0   2  236.48    9.60
  -8   0  -2  254.57    9.10
  -8   0  -2  248.68    9.50
   9   0   2  152.98    5.60
  -9   0  -2  172.88    6.90
  -9   0  -2  160.68    6.60
  -9   0  -2  181.08    6.50
   9   0   2  148.19    6.30
 -10   0  -2   41.40    1.90
 -10   0  -2   43.70    2.30
  10   0   2   46.70    2.80
  11   0   2  180.78    6.40
  12  -1  -2   11.90    0.70
  12  -1  -2   12.00    0.80
 -12  -1   2   11.90    0.70
 -12  -1   2   12.30    0.70
  12   1  -2   12.90    0.60
 -12   1   2   12.20    0.80
  12   1  -2   12.40    0.80
 -12   1   2   13.90    1.00
  11  -1  -2   51.39    2.60
 -11  -1   2   49.20    2.40
 -11  -1   2   47.60    2.70
 -11  -1   2   50.59    2.10
 -11  -1   2   50.39    2.20
  11  -1  -2   54.99    2.50
  10  -1  -2  149.49    6.40
 -10  -1   2  167.78    6.30
  10   1  -2  169.78    6.00
 -10   1   2  149.59    6.60
  10   1  -2  155.98    5.70
  10   1  -2  164.28    6.70
 -10   1   2  156.88    6.50
   9  -1  -2  316.07   13.10
  -9  -1   2  313.67   12.20
  -9  -1   2  354.56   12.50
   9  -1  -2  341.67   12.60
  -9  -1   2  369.16   12.70
   9   1  -2  330.37   11.30
   9   1  -2  310.67   11.20
   9   1  -2  325.47   11.10
   9   1  -2  316.67   11.10
  -8  -1   2   -0.80    1.40
   8  -1  -2    1.50    1.80
   8  -1  -2    8.10    2.30
   8   1  -2    1.70    1.50
   8   1  -2    0.50    1.50
   8   1  -2    3.00    0.90
   8   1  -2   23.20   13.60
   7  -1  -2  158.98    6.80
  -7  -1   2  160.28    7.10
  -7  -1   2  151.98    6.00
   7   1  -2  159.98    6.90
  -7   1   2  159.28    6.30
   7   1  -2  153.08    5.60
   7   1  -2  154.38    5.50
   6  -1  -2   46.90    3.40
   6  -1  -2   52.89    2.80
  -6  -1   2   52.19    3.00
  -6  -1   2   51.49    2.80
  -6  -1   2   49.40    2.30
  -6  -1   2   51.39    2.30
  -6   1   2   49.80    1.90
   6   1  -2   46.60    2.60
  -6   1   2   47.30    2.40
  -6   1   2   50.29    2.70
   6   1  -2   47.10    1.90
  -6   1   2   48.90    2.70
   6   1  -2   51.19    2.70
   6   1  -2   50.89    2.00
  -6   1   2   48.90    2.60
  -5  -1   2   22.70    1.30
   5  -1  -2   23.40    1.60
  -5  -1   2   24.00    1.30
   5  -1  -2   22.30    1.50
  -5  -1   2   23.70    1.60
  -5  -1   2   23.50    1.70
   5   1  -2   22.90    1.50
   5   1  -2   24.00    1.50
  -5   1   2   22.60    1.50
   5   1  -2   20.90    1.00
  -5   1   2   23.60    1.50
  -5   1   2   24.80    1.60
   4  -1  -2 1569.84   53.09
   4  -1  -2 1610.14   53.29
  -4  -1   2 1592.34   53.49
  -4  -1   2 1588.74   53.39
  -4  -1   2 1571.44   52.99
   4   1  -2 1579.24   52.79
  -4   1   2 1589.44   52.79
  -4   1   2 1573.54   52.89
  -4   1   2 1567.54   52.79
   4   1  -2 1545.55   52.69
  -3  -1   2  816.62   28.10
   3  -1  -2  833.02   27.90
  -3  -1   2  808.72   27.80
   3  -1  -2  841.02   28.50
  -3  -1   2  832.72   28.20
  -3  -1   2  837.42   27.80
  -3   1   2  803.62   27.20
  -3   1   2  797.22   27.30
  -3   1   2  805.72   27.10
   3   1  -2  817.02   27.10
   3   1  -2  784.22   27.00
  -2  -1   2 4494.85  146.79
   2  -1  -2 4349.06  146.69
   2   1  -2 3805.12  134.99
   2   1  -2 4317.17  134.89
  -1  -1   2 3088.39  102.79
   1   1  -2 3057.09  102.19
   1   1  -2 3092.29  101.99
   0  -1  -2  915.61   29.80
   0  -1  -2  893.31   30.30
   0  -1   2  879.51   30.10
   0  -1  -2  888.01   29.80
   0   1  -2  877.01   29.60
   0   1   2  898.31   29.50
   0   1   2  885.61   29.70
   0   1  -2  881.01   29.90
   0   1  -2  895.61   29.70
  -1  -1  -2 1491.95   48.90
  -1  -1  -2 1442.26   48.90
   1  -1   2 1466.45   48.90
  -1  -1  -2 1470.75   49.00
  -1  -1  -2 1455.75   49.50
   1  -1   2 1480.95   49.20
   1   1   2 1425.26   48.20
  -1   1  -2 1489.95   48.30
   1   1   2 1424.46   48.50
  -1   1  -2 1450.15   48.50
   2  -1   2 1163.48   38.80
   2  -1   2 1185.38   38.90
  -2  -1  -2 1168.48   39.00
  -2  -1  -2 1161.98   39.00
  -2  -1  -2 1145.39   39.50
  -2  -1  -2 1147.69   38.80
   2   1   2 1186.88   39.60
  -2   1  -2 1179.48   39.20
  -2   1  -2 1172.28   39.60
  -2   1  -2 1160.88   39.70
  -3  -1  -2   90.19    3.70
  -3  -1  -2   85.59    4.10
  -3  -1  -2   96.59    3.90
  -3  -1  -2   92.99    3.70
   3  -1   2   97.39    3.70
   3   1   2   87.79    3.70
  -3   1  -2   90.19    3.90
  -3   1  -2   89.89    3.50
  -3   1  -2   91.59    3.80
   4  -1   2  815.62   28.60
  -4  -1  -2  891.91   28.90
  -4  -1  -2  829.12   29.30
   4  -1   2  861.61   28.70
  -4  -1  -2  832.22   28.60
  -4  -1  -2  811.62   28.50
   4   1   2  854.21   30.60
   4   1   2  806.42   28.40
   4   1   2  878.61   29.30
  -4   1  -2  866.31   30.30
  -4   1  -2  850.81   29.00
  -4   1  -2  851.71   29.30
   5  -1   2  206.38    7.80
  -5  -1  -2  203.98    7.70
  -5  -1  -2  211.18    7.90
  -5  -1  -2  212.08    8.30
   5  -1   2  220.58    8.20
  -5  -1  -2  207.48    8.50
  -5   1  -2  202.88    7.20
   5   1   2  209.38    7.20
   5   1   2  196.88    7.80
   5   1   2  213.28    8.10
  -5   1  -2  206.78    7.20
  -5   1  -2  216.58    8.20
   5   1   2  208.18    8.10
  -5   1  -2  211.18    7.90
  -5   1  -2  205.88    8.10
  -5   1  -2  206.08    7.90
  -6  -1  -2  375.16   13.80
   6  -1   2  357.66   13.00
   6  -1   2  364.16   13.50
  -6  -1  -2  355.06   13.00
  -6  -1  -2  321.97   14.70
  -6  -1  -2  372.36   12.90
  -6   1  -2  368.06   13.80
   6   1   2  361.96   12.40
  -6   1  -2  363.86   13.20
   6   1   2  376.16   13.60
   6   1   2  349.27   13.20
   6   1   2  376.36   13.60
   6   1   2  371.96   12.50
  -6   1  -2  363.06   13.50
   6   1   2  343.17   12.60
  -7  -1  -2   92.89    5.20
   7  -1   2   89.39    5.10
  -7  -1  -2   96.39    4.90
   7  -1   2   91.29    4.40
   7   1   2   88.49    4.20
   7   1   2   90.29    3.40
   7   1   2   87.69    3.50
  -7   1  -2   94.49    5.20
  -7   1  -2   89.19    4.20
   7   1   2   93.39    5.30
   7   1   2   86.49    5.10
   8  -1   2   93.99    3.90
  -8  -1  -2   98.99    3.90
   8  -1   2   98.29    4.50
   8  -1   2   99.99    3.90
  -8  -1  -2   94.19    3.80
  -8  -1  -2   99.79    4.30
   8   1   2   97.69    3.60
   8   1   2   94.39    4.60
   8   1   2   97.49    4.00
  -8   1  -2   97.89    4.10
   8   1   2   99.99    3.70
  -8   1  -2  103.79    3.90
  -8   1  -2  100.79    4.60
   8   1   2   98.59    3.70
  -8   1  -2   94.59    3.90
   8   1   2  100.09    3.90
  -9  -1  -2  123.79    4.70
  -9  -1  -2  120.69    4.70
  -9  -1  -2  129.39    5.10
   9  -1   2  123.49    4.70
   9  -1   2  118.19    4.70
  -9  -1  -2  127.49    4.70
  -9   1  -2  132.09    4.90
  -9   1  -2  126.99    5.10
   9   1   2  134.39    4.90
  -9   1  -2  132.69    5.70
   9   1   2  130.49    5.00
  -9   1  -2  129.29    5.00
   9   1   2  131.89    4.80
 -10  -1  -2   62.89    2.60
 -10  -1  -2   66.69    2.70
 -10  -1  -2   73.89    3.40
  10  -1   2   65.09    2.70
  10  -1   2   64.19    2.60
 -10  -1  -2   65.59    2.80
  10   1   2   65.89    2.40
  10   1   2   66.89    2.80
 -10   1  -2   63.49    2.60
  10   1   2   63.89    2.50
 -10   1  -2   64.69    2.70
 -10   1  -2   65.39    3.20
 -11  -1  -2    1.50    0.40
 -11  -1  -2    2.00    0.30
 -11  -1  -2    1.40    0.60
  11  -1   2    1.70    0.50
  11   1   2    2.20    0.50
 -11   1  -2    1.30    0.40
 -11   1  -2    1.80    0.40
 -12  -2   2    3.20    0.50
 -12  -2   2    3.50    0.30
 -12  -2   2    3.20    0.30
  12  -2  -2    2.60    0.40
 -12  -2   2    2.30    0.60
 -12   2   2    3.50    0.50
  12   2  -2    3.10    0.30
  12   2  -2    3.30    0.50
  12   2  -2    2.80    0.80
 -12   2   2    3.00    0.40
 -12   2   2    3.10    0.50
 -11  -2   2   31.30    1.70
  11  -2  -2   30.90    1.80
  11  -2  -2   32.50    1.50
  11  -2  -2   32.40    2.00
 -11  -2   2   31.50    1.90
 -11  -2   2   32.80    1.40
 -11  -2   2   32.80    1.40
  11   2  -2   36.60    1.70
  11   2  -2   35.10    1.40
  11   2  -2   35.90    1.50
 -11   2   2   36.10    1.50
 -11   2   2   34.20    1.60
  11   2  -2   33.20    1.60
  11   2  -2   31.80    1.50
 -11   2   2   35.30    2.10
 -11   2   2   34.90    1.70
 -10  -2   2   44.40    2.50
  10  -2  -2   42.50    2.00
 -10  -2   2   42.20    1.90
  10  -2  -2   43.00    2.50
 -10  -2   2   43.20    1.90
 -10   2   2   42.00    2.50
  10   2  -2   45.90    1.90
  10   2  -2   44.80    1.80
  10   2  -2   45.10    1.90
 -10   2   2   41.30    2.10
 -10   2   2   46.30    2.00
 -10   2   2   45.60    2.10
  10   2  -2   44.50    2.00
  10   2  -2   44.70    2.10
  -9  -2   2   19.20    1.10
  -9  -2   2   18.40    1.10
  -9  -2   2   19.40    1.70
   9  -2  -2   18.50    1.20
   9  -2  -2   20.40    1.70
  -9  -2   2   20.60    1.30
  -9   2   2   21.30    1.30
   9   2  -2   21.70    1.10
  -9   2   2   21.30    0.90
   9   2  -2   20.60    1.30
  -9   2   2   19.90    1.70
   9   2  -2   21.00    1.00
  -9   2   2    3.50   15.80
   9   2  -2   20.80    1.20
   9   2  -2   21.40    1.20
  -8  -2   2  222.58   10.00
  -8  -2   2  235.98    8.40
   8  -2  -2  213.28    8.60
   8  -2  -2  214.58    9.70
   8   2  -2  214.48    9.90
   8   2  -2  228.88    7.80
  -8   2   2  209.38    9.20
   8   2  -2  226.78    7.70
  -8   2   2  202.48    7.60
  -8   2   2  225.98    7.60
  -8   2   2  215.38    9.80
   8   2  -2  209.78    9.00
   8   2  -2  225.48    7.60
   7  -2  -2   28.40    2.90
  -7  -2   2   35.80    3.10
  -7  -2   2   29.80    1.60
   7   2  -2   30.80    1.40
  -7   2   2   33.60    2.50
  -7   2   2   27.80    1.90
   7   2  -2   29.90    1.30
   7   2  -2   26.90    2.40
  -7   2   2   31.60    1.30
  -7   2   2   29.80    1.40
  -7   2   2   26.30    3.40
  -7   2   2   31.20    2.40
   6  -2  -2   24.50    1.70
  -6  -2   2   24.10    2.40
  -6  -2   2   23.80    1.30
  -6  -2   2   23.00    1.80
   6  -2  -2   24.70    2.20
  -6   2   2   22.30    1.60
  -6   2   2   24.60    1.90
  -6   2   2   23.70    1.00
  -6   2   2   23.80    1.10
   6   2  -2   24.70    1.40
   6   2  -2   22.60    1.80
  -6   2   2   25.20    1.90
  -6   2   2   23.00    2.00
   6   2  -2   23.30    1.10
   6   2  -2   23.80    2.00
   5  -2  -2  298.57   10.80
  -5  -2   2  279.77   10.30
  -5  -2   2  287.47   10.00
  -5  -2   2  293.07   11.00
   5  -2  -2  288.07   10.50
  -5  -2   2  281.77   11.00
   5   2  -2  272.57    9.80
   5   2  -2  275.07    9.70
  -5   2   2  283.77    9.80
  -5   2   2  284.47   10.70
  -5   2   2  290.17    9.70
   5   2  -2  301.07   10.60
  -5   2   2  305.17   10.80
   5   2  -2  281.87   10.40
  -4  -2   2  876.81   30.40
  -4  -2   2  896.51   31.10
  -4  -2   2  907.11   31.10
   4  -2  -2  908.01   30.80
  -4   2   2  849.22   29.30
  -4   2   2  892.31   30.20
   4   2  -2  885.51   30.00
   4   2  -2  868.51   29.80
  -4   2   2  899.51   30.20
  -4   2   2  884.41   30.00
  -3  -2   2  105.49    4.70
  -3  -2   2  108.89    4.70
   3  -2  -2  109.59    4.60
  -3  -2   2  106.19    4.30
   3  -2  -2  126.09    4.40
   3   2  -2  100.49    3.90
  -3   2   2  103.59    4.30
  -3   2   2  103.49    4.20
  -3   2   2  104.49    4.00
   3   2  -2  103.89    4.10
   2  -2  -2  991.60   33.90
  -2  -2   2  992.80   34.00
  -2  -2   2  999.70   34.40
   2  -2  -2 1037.20   34.40
  -2  -2   2 1030.60   34.50
   2  -2  -2 1009.80   34.10
   2   2  -2 1037.70   33.90
  -2   2   2 1003.30   34.10
   2   2  -2  985.90   33.60
  -2   2   2 1022.10   33.70
   2   2  -2  977.10   33.80
   1  -2  -2  380.76   13.20
  -1  -2   2  386.76   13.60
  -1  -2   2  392.26   13.20
  -1  -2   2  377.76   13.50
   1  -2  -2  381.36   13.20
   1  -2  -2  385.86   13.70
  -1   2   2  373.36   12.70
   1   2  -2  387.16   13.00
  -1   2   2  371.76   13.10
   1   2  -2  365.16   12.70
  -1   2   2  382.26   13.00
   0  -2   2   35.30    1.50
   0  -2   2   32.00    1.80
   0  -2  -2   30.90    1.50
   0  -2  -2   32.10    1.60
   0  -2  -2   34.80    2.00
   0   2  -2   34.40    1.60
   0   2  -2   36.20    1.80
   0   2   2   34.10    1.60
  -1  -2  -2  418.16   14.80
  -1  -2  -2  440.06   14.90
   1  -2   2  437.86   15.10
  -1  -2  -2  424.06   15.50
  -1   2  -2  431.66   14.80
  -1   2  -2  437.76   15.20
  -1   2  -2  445.66   15.50
   1   2   2  424.56   14.70
  -2  -2  -2  227.38    9.10
   2  -2   2  227.78    8.50
  -2  -2  -2  240.58    8.50
   2   2   2  230.78    8.60
  -2   2  -2  233.98    9.00
  -2   2  -2  239.78    8.70
  -2   2  -2  237.28    8.30
   3   2   2  500.35   17.30
  -3   2  -2  524.65   18.80
  -3   2  -2  512.65   17.80
   3   2   2  528.85   18.30
  -3   2  -2  524.15   17.40
  -4  -2  -2   52.09    3.30
  -4  -2  -2   50.09    2.20
   4  -2   2   49.00    2.40
  -4  -2  -2   50.39    2.70
  -4   2  -2   52.69    2.90
   4   2   2   51.09    2.90
   4   2   2   51.09    2.00
  -4   2  -2   49.00    2.60
   4   2   2   51.89    1.90
  -4   2  -2   52.49    2.00
  -4   2  -2   51.49    2.10
  -4   2  -2   55.49    3.10
  -4   2  -2   50.39    2.60
   4   2   2   53.19    2.80
   5  -2   2  166.58    6.50
   5  -2   2  163.68    6.50
  -5  -2  -2  175.68    6.90
  -5  -2  -2  173.98    7.70
  -5  -2  -2  167.88    6.20
  -5   2  -2  173.38    6.80
   5   2   2  171.08    6.10
  -5   2  -2  175.78    7.40
  -5   2  -2  168.18    6.80
  -5   2  -2  175.38    6.10
  -5   2  -2  172.28    7.40
   5   2   2  168.98    8.20
   6  -2   2  535.35   19.10
  -6  -2  -2  527.15   17.80
  -6  -2  -2  501.95   19.40
  -6  -2  -2  495.25   18.40
   6  -2   2  509.05   18.10
  -6   2  -2  532.75   17.60
  -6   2  -2  520.65   19.10
   6   2   2  521.05   17.60
   6   2   2  513.55   17.60
  -6   2  -2  505.35   18.60
   6   2   2  531.45   19.10
   6   2   2  523.95   17.70
   6   2   2  494.75   18.90
  -6   2  -2  520.35   18.60
  -6   2  -2  519.55   17.60
  -6   2  -2  527.75   17.70
  -7  -2  -2   97.59    3.90
  -7  -2  -2  107.19    4.20
   7  -2   2  101.79    4.50
  -7  -2  -2  100.19    4.00
   7  -2   2   96.49    4.00
  -7  -2  -2  106.89    4.10
   7  -2   2  106.19    4.60
  -7   2  -2  105.09    3.90
  -7   2  -2  105.89    4.80
  -7   2  -2  105.89    3.70
  -7   2  -2  106.29    4.20
   7   2   2  101.99    3.80
   7   2   2   99.89    4.50
   7   2   2  106.89    3.90
  -7   2  -2  105.69    5.80
  -8  -2  -2  212.38    7.60
   8  -2   2  212.38    8.00
  -8  -2  -2  207.38    7.50
   8  -2   2  205.98    7.70
  -8  -2  -2  215.58    8.40
  -8  -2  -2  214.78    7.70
  -8   2  -2  228.58    8.30
   8   2   2  227.28    8.30
  -8   2  -2  251.57    9.90
  -8   2  -2  211.98    8.30
   8   2   2  255.67    8.50
   8   2   2  226.08    8.20
  -8   2  -2  219.48    8.40
   8   2   2  225.98    8.10
   8   2   2  219.78    7.90
  -8   2  -2  224.08    7.80
  -9  -2  -2   18.20    1.00
  -9  -2  -2   17.90    1.00
  -9  -2  -2   19.10    1.50
  -9  -2  -2   17.00    1.10
   9  -2   2   17.90    1.10
   9   2   2   19.60    1.20
   9   2   2   21.60    1.10
  -9   2  -2   19.10    1.30
  -9   2  -2   19.30    1.70
   9   2   2   20.40    1.00
  -9   2  -2   21.50    1.20
  -9   2  -2   19.40    1.20
   9   2   2   20.20    1.30
   9   2   2   20.80    1.10
 -10  -2  -2   -0.10    0.10
 -10  -2  -2    0.00    0.40
 -10  -2  -2   -0.10    0.10
  10  -2   2    0.10    0.10
  10   2   2    7.60   18.70
  11  -2   2    6.80    0.70
 -11  -2  -2    8.40    0.80
 -11  -2  -2    7.70    0.60
  11  -2   2    8.80    0.60
 -11  -2  -2    8.70    0.70
 -11   2  -2    9.00    0.80
  11   2   2    9.80    0.60
  11   2   2    9.90    0.50
 -11   2  -2    9.50    0.90
 -11  -3   2   66.79    2.90
  11  -3  -2   56.29    3.20
  11  -3  -2   63.99    3.40
  11  -3  -2   62.89    2.80
 -11  -3   2   69.49    2.80
  11  -3  -2   71.79    2.60
  11   3  -2   79.89    2.90
  11   3  -2   81.59    3.20
  11   3  -2   83.29    3.30
 -11   3   2   77.89    3.00
  11   3  -2   79.29    3.00
 -10  -3   2   82.69    4.10
 -10  -3   2   89.99    3.30
 -10  -3   2   90.59    3.70
  10  -3  -2   93.29    4.10
  10  -3  -2   90.39    3.60
  10  -3  -2   90.09    4.00
 -10  -3   2   90.09    3.30
 -10  -3   2   98.09    4.70
 -10   3   2   97.09    4.80
 -10   3   2  103.59    4.00
  10   3  -2  103.29    4.00
 -10   3   2  108.39    3.70
  10   3  -2  103.29    3.90
  10   3  -2  102.99    3.80
  10   3  -2  101.29    3.80
   9  -3  -2  163.28    6.70
  -9  -3   2  150.78    5.80
  -9  -3   2  165.28    6.40
   9  -3  -2  153.88    6.50
  -9  -3   2  153.28    5.70
  -9  -3   2  159.18    6.50
  -9  -3   2  163.28    5.70
   9  -3  -2  165.08    5.90
  -9  -3   2  164.28    5.70
  -9   3   2  180.78    6.50
   9   3  -2  168.38    6.20
  -9   3   2  164.38    7.10
   9   3  -2  171.68    6.50
  -9   3   2  179.28    6.10
  -9   3   2  176.08    6.30
   9   3  -2  180.98    6.40
   9   3  -2  195.58    7.20
   9   3  -2  182.98    6.30
  -9   3   2  178.88    6.20
   8  -3  -2  101.89    4.70
  -8  -3   2  107.99    4.70
   8  -3  -2  106.99    4.80
  -8  -3   2   95.09    3.90
  -8  -3   2   99.09    3.70
  -8  -3   2  106.29    4.50
  -8  -3   2   98.29    3.90
  -8  -3   2   99.79    3.80
   8   3  -2  114.59    4.10
  -8   3   2  107.89    5.00
  -8   3   2  112.49    4.30
  -8   3   2  111.19    3.90
  -8   3   2  110.59    4.10
   8   3  -2  111.99    4.20
  -8   3   2  114.29    4.00
   8   3  -2  110.29    4.10
  -8   3   2  109.19    4.10
   8   3  -2  106.29    4.30
  -7  -3   2   26.20    4.10
   7  -3  -2   25.70    1.90
  -7  -3   2   27.30    3.40
   7  -3  -2   21.80    4.00
  -7   3   2   27.10    1.30
   7   3  -2   27.10    1.30
   7   3  -2   29.80    2.90
   7   3  -2   27.00    1.30
   7   3  -2   27.70    1.20
  -7   3   2   25.80    2.80
  -7   3   2   26.00    1.20
  -7   3   2   24.60    3.50
  -7   3   2   27.00    1.30
  -7   3   2   23.00    2.70
   6  -3  -2  104.09    5.60
   6  -3  -2   99.09    4.50
  -6  -3   2  109.59    5.80
  -6  -3   2   96.19    4.60
   6   3  -2  108.99    5.70
   6   3  -2  102.89    3.80
  -6   3   2  101.39    4.90
  -6   3   2  100.49    5.20
   6   3  -2  106.49    3.70
  -6   3   2  107.19    3.70
   6   3  -2   97.19    3.80
  -6   3   2  103.59    5.50
  -6   3   2  103.79    3.80
   6   3  -2   84.69    5.90
  -6   3   2  105.99    3.80
   5  -3  -2  108.79    4.70
  -5  -3   2  103.19    5.60
  -5  -3   2  104.19    4.70
  -5  -3   2  130.59    6.80
   5   3  -2  105.99    4.50
   5   3  -2  102.59    3.90
   5   3  -2  107.69    4.80
   5   3  -2  103.19    3.80
  -5   3   2  102.19    4.70
  -5   3   2   97.69    6.30
  -5   3   2  108.79    3.90
  -5   3   2  109.19    3.80
  -5   3   2  109.49    5.30
  -4  -3   2  199.48    8.30
  -4  -3   2  195.28    7.50
  -4  -3   2  197.98    8.30
   4   3  -2  193.38    7.40
   4   3  -2  203.48    7.70
  -4   3   2  205.38    8.00
  -4   3   2  198.38    7.00
   4   3  -2  193.78    6.80
  -4   3   2  201.98    6.90
  -4   3   2  206.88    7.70
  -4   3   2  205.58    8.10
  -3   3   2  107.29    4.60
  -3   3   2   99.19    4.10
  -3   3   2   99.49    4.40
   3   3  -2   95.89    4.10
  -3   3   2   98.59    3.50
   3   3  -2  101.59    4.20
  -2  -3   2  380.16   14.10
  -2  -3   2  383.86   13.50
  -2  -3   2  383.76   14.30
   2   3  -2  407.26   13.70
   2   3  -2  372.46   13.30
  -2   3   2  396.26   14.90
   2   3  -2  389.16   13.60
  -2   3   2  385.86   13.50
  -2   3   2  394.86   14.00
  -1  -3   2  160.28    7.40
   1  -3  -2  147.99    6.30
   1  -3  -2  148.19    5.70
   1  -3  -2  147.49    5.80
  -1  -3   2  145.69    6.00
  -1  -3   2  152.08    6.20
   1   3  -2  158.88    5.80
   1   3  -2  157.78    6.20
  -1   3   2  152.98    6.10
   1   3  -2  156.58    5.50
  -1   3   2  148.19    5.50
  -1   3   2  156.48    6.00
   0  -3  -2   39.50    2.10
   0  -3  -2   36.70    2.00
   0  -3   2   38.40    2.20
   0  -3   2   37.20    2.40
   0  -3  -2   38.50    2.60
   0   3  -2   37.60    1.80
   0   3   2   39.00    2.00
   0   3  -2   40.60    2.30
   0   3   2   37.80    1.60
   0   3   2   36.60    1.90
  -1  -3  -2  546.45   20.00
  -1  -3  -2  551.24   19.10
   1  -3   2  544.25   19.40
  -1   3  -2  574.54   19.50
  -1   3  -2  535.45   18.00
   1   3   2  519.35   18.40
  -1   3  -2  574.24   20.70
   1   3   2  559.24   18.90
   1   3   2  472.45   18.20
  -1   3  -2  539.45   18.40
   2  -3   2  615.64   22.10
  -2  -3  -2  704.33   22.90
  -2  -3  -2  679.63   23.80
   2  -3   2  622.34   22.40
   2  -3   2  648.84   22.90
  -2   3  -2  690.23   23.30
   2   3   2  701.83   24.20
  -2   3  -2  700.43   24.40
  -2   3  -2  705.53   23.40
  -2   3  -2  699.63   24.80
  -2   3  -2  686.63   23.80
   3  -3   2   50.49    2.30
  -3  -3  -2   53.39    2.90
   3  -3   2   51.39    2.60
  -3  -3  -2   53.29    3.60
  -3   3  -2   54.09    3.40
  -3   3  -2   54.49    3.00
   3   3   2   55.09    3.20
   3   3   2   53.59    2.00
  -3   3  -2   55.59    2.60
  -3   3  -2   55.49    2.20
   3   3   2   53.59    2.00
   3   3   2   54.39    2.90
  -3   3  -2   54.79    2.10
  -4  -3  -2   67.99    4.40
   4  -3   2   70.79    3.30
   4  -3   2   69.29    3.00
  -4  -3  -2   73.89    3.80
  -4   3  -2   70.79    3.80
  -4   3  -2   75.09    2.80
  -4   3  -2   73.69    3.50
  -4   3  -2   75.79    4.30
   4   3   2   72.89    2.70
   4   3   2   76.99    4.10
  -4   3  -2   75.19    2.90
   4   3   2   71.39    4.20
   4   3   2   72.29    2.70
  -4   3  -2   69.79    4.30
  -5  -3  -2  316.27   12.20
   5  -3   2  321.07   11.70
  -5  -3  -2  306.67   13.20
   5  -3   2  327.97   11.50
   5   3   2  335.67   13.00
   5   3   2  309.67   11.70
   5   3   2  337.87   12.80
  -5   3  -2  333.37   11.50
   5   3   2  332.87   11.50
  -5   3  -2  337.17   13.40
  -5   3  -2  331.47   13.00
  -5   3  -2  342.37   11.60
  -5   3  -2  350.46   13.00
  -5   3  -2  337.47   13.40
  -5   3  -2  344.17   11.50
   6  -3   2  211.08    7.90
   6  -3   2  200.98    7.30
  -6  -3  -2  204.98    7.40
  -6  -3  -2  188.38    8.10
  -6   3  -2  220.48    7.70
  -6   3  -2  224.38    8.20
   6   3   2  218.08    7.80
  -6   3  -2  217.38    8.10
  -6   3  -2  218.98    7.80
   6   3   2  226.88    7.90
  -6   3  -2  227.68    7.90
   6   3   2  221.28    7.70
  -7  -3  -2   91.49    3.40
   7  -3   2   88.89    5.20
  -7  -3  -2   93.89    4.30
   7  -3   2   93.09    4.20
  -7  -3  -2   86.69    3.80
  -7  -3  -2   92.39    3.70
  -7  -3  -2   94.89    3.80
   7  -3   2   91.99    3.70
  -7  -3  -2   92.59    3.50
  -7   3  -2  101.09    3.90
   7   3   2   96.29    3.70
  -7   3  -2   99.49    3.60
   7   3   2  100.29    3.80
  -7   3  -2  103.09    4.10
   7   3   2  102.39    3.80
  -7   3  -2  104.29    4.90
   7   3   2  103.39    3.90
  -7   3  -2  100.19    3.80
  -7   3  -2  101.69    3.80
  -8  -3  -2   15.10    1.30
  -8  -3  -2   15.70    0.80
  -8  -3  -2   14.60    1.00
  -8  -3  -2   12.70    1.10
   8  -3   2   12.80    1.90
  -8  -3  -2   14.60    0.80
   8  -3   2   15.30    1.40
  -8  -3  -2   13.50    1.10
   8  -3   2   13.60    1.00
  -8  -3  -2   13.40    1.40
  -8   3  -2   17.00    1.10
   8   3   2   16.90    1.00
  -8   3  -2   13.30    1.60
   8   3   2   17.80    1.00
  -8   3  -2   16.00    0.80
   8   3   2   17.10    1.10
  -8   3  -2    3.20   13.80
   8   3   2   16.70    0.90
   8   3   2   16.50    1.20
  -8   3  -2   16.00    0.90
   9  -3   2   11.80    1.40
   9  -3   2   14.60    1.40
  -9  -3  -2   14.60    1.30
  -9  -3  -2   14.40    1.00
  -9  -3  -2   15.70    1.10
   9  -3   2   15.10    1.00
   9   3   2   16.30    1.00
  -9   3  -2   15.50    0.70
   9   3   2   15.40    0.80
   9   3   2   16.90    1.20
   9   3   2   18.50    1.30
  -9   3  -2   17.20    2.00
   9   3   2   16.80    1.00
  -9   3  -2   15.50    1.00
  10  -3   2   62.89    3.30
  10  -3   2   76.09    2.80
 -10  -3  -2   62.39    2.50
 -10  -3  -2   67.09    2.70
 -10  -3  -2   63.39    2.90
  10   3   2   62.19    2.70
  10   3   2   71.99    2.70
 -10   3  -2   67.99    2.70
  10   3   2   80.09    2.70
 -11  -4   2    3.80    0.60
  11  -4  -2    3.30    0.50
  11  -4  -2    3.20    0.80
 -11   4   2    4.00    0.40
  11   4  -2    4.90    0.40
  11   4  -2    3.70    0.50
  10  -4  -2   37.60    2.50
  10  -4  -2   38.10    2.10
  10  -4  -2   40.60    1.70
  10  -4  -2   38.50    2.00
 -10  -4   2   40.60    1.60
 -10  -4   2   39.50    2.00
 -10  -4   2   40.50    1.60
 -10  -4   2   40.30    1.90
 -10   4   2   45.60    1.60
  10   4  -2   42.90    1.80
 -10   4   2   42.50    1.70
 -10   4   2   46.40    1.90
  10   4  -2   45.70    1.80
  10   4  -2   47.80    1.90
  10   4  -2   46.60    1.90
  10   4  -2   47.20    1.90
  -9  -4   2   34.10    2.50
   9  -4  -2   32.70    2.10
   9  -4  -2   28.80    1.90
  -9  -4   2   35.20    2.90
  -9  -4   2   28.70    1.40
  -9  -4   2   31.70    1.40
   9  -4  -2   34.90    3.80
  -9   4   2   35.20    1.50
   9   4  -2   34.20    1.60
  -9   4   2   32.30    1.50
   9   4  -2   36.40    1.70
   9   4  -2   35.80    1.50
   9   4  -2   33.50    1.40
  -9   4   2   30.10    1.70
   9   4  -2   34.80    1.60
  -9   4   2   38.80    1.50
  -8  -4   2   93.89    3.70
   8  -4  -2   95.29    5.20
  -8  -4   2   96.99    4.20
  -8  -4   2   93.29    3.70
  -8  -4   2   98.39    3.70
  -8  -4   2   99.29    4.40
   8  -4  -2   96.39    4.40
   8  -4  -2   94.69    3.70
  -8   4   2  106.79    3.80
   8   4  -2  107.89    4.10
   8   4  -2  110.39    3.90
  -8   4   2  111.49    4.00
  -8   4   2  108.79    4.20
   8   4  -2  101.09    3.80
   8   4  -2  107.39    4.00
  -8   4   2  106.69    3.90
  -8   4   2  107.69    3.90
  -7  -4   2   25.70    2.00
  -7  -4   2   22.40    1.40
  -7  -4   2   24.30    1.40
  -7  -4   2   26.00    1.50
  -7  -4   2   26.10    1.40
   7  -4  -2   27.10    2.00
   7  -4  -2   23.90    1.90
  -7  -4   2   24.70    1.80
   7  -4  -2   25.00    1.30
   7  -4  -2   23.10    2.40
  -7   4   2   29.50    1.20
   7   4  -2   29.30    1.30
  -7   4   2   28.70    1.40
  -7   4   2   27.60    1.50
   7   4  -2   28.60    1.40
   7   4  -2   27.40    1.40
  -7   4   2   31.30    1.40
  -7   4   2   29.00    1.30
  -6  -4   2  149.59    6.10
   6  -4  -2  154.28    6.30
   6  -4  -2  134.79    8.60
  -6  -4   2  145.49    5.90
   6  -4  -2  146.69    5.50
  -6  -4   2  174.78    7.90
   6  -4  -2  166.08    7.70
  -6  -4   2  155.28    7.40
  -6  -4   2  145.99    5.70
  -6  -4   2  135.39    5.60
   6  -4  -2  158.78    6.50
  -6  -4   2  150.68    5.90
   6  -4  -2  144.69    6.50
  -6  -4   2  168.98    6.40
   6   4  -2  168.68    5.70
   6   4  -2  159.18    5.90
  -6   4   2  157.38    6.00
  -6   4   2  168.98    5.90
  -6   4   2  157.38    5.70
  -6   4   2  165.88    5.80
  -6   4   2  164.78    5.80
  -5  -4   2  104.69    5.20
   5  -4  -2   95.79    4.50
  -5  -4   2   92.79    5.40
  -5  -4   2  122.59    8.30
  -5   4   2  102.99    3.80
   5   4  -2  103.19    3.70
   5   4  -2  107.09    5.20
   5   4  -2  100.99    3.80
  -5   4   2  111.29    6.50
  -5   4   2  103.59    5.40
  -5   4   2  105.89    3.90
  -4  -4   2  136.59    6.50
   4  -4  -2  132.09    5.90
  -4  -4   2  136.39    7.50
  -4  -4   2  131.19    5.70
  -4   4   2  143.29    5.10
  -4   4   2  148.09    5.10
  -4   4   2  145.59    6.70
   4   4  -2  142.79    5.10
  -4   4   2  140.69    5.10
   4   4  -2  142.39    6.20
  -4   4   2  140.09    7.00
   4   4  -2  145.99    5.00
   4   4  -2  150.88    6.30
  -3  -4   2   25.80    2.50
   3  -4  -2   24.00    1.70
  -3  -4   2   24.60    2.00
  -3  -4   2   26.10    2.80
  -3   4   2   26.20    2.30
  -3   4   2   24.60    3.10
  -3   4   2   25.60    1.10
   3   4  -2   24.00    2.70
  -3   4   2   26.90    1.10
   3   4  -2   25.10    1.00
   2  -4  -2  220.18    8.60
  -2  -4   2  233.98    9.50
  -2  -4   2  223.18    8.30
  -2  -4   2  240.98    8.90
  -2  -4   2  248.98    9.80
  -2   4   2  243.98    8.30
   2   4  -2  246.48    9.10
  -2   4   2  249.88    9.60
   2   4  -2  239.18    9.60
  -2   4   2  241.98    9.50
   2   4  -2  243.68    9.90
  -2   4   2  244.28    8.30
  -1   4   2   75.09    3.70
   1   4  -2   74.99    4.10
   1   4  -2   70.79    3.30
  -1   4   2   69.59    2.50
   1   4  -2   70.89    3.80
  -1   4   2   72.19    3.60
   0  -4  -2  508.55   18.20
   0  -4   2  496.55   18.20
   0  -4   2  532.05   19.60
   0  -4  -2  512.45   19.40
   0  -4   2  521.95   18.30
   0   4  -2  533.45   17.80
   0   4  -2  529.35   18.50
   0   4  -2  545.35   19.80
   0   4  -2  536.45   19.20
   0   4   2  539.25   19.00
   0   4   2  514.25   18.70
   1  -4   2   29.90    1.80
  -1  -4  -2   32.00    3.40
  -1  -4  -2   30.90    2.30
   1  -4   2   28.20    2.40
  -1   4  -2   32.10    1.40
   1   4   2   34.00    2.70
   1   4   2   31.50    2.40
  -1   4  -2   32.80    2.40
  -1   4  -2   33.00    2.10
  -1   4  -2   34.10    1.30
   1   4   2   31.80    1.90
  -1   4  -2   35.60    3.20
   2  -4   2   32.80    2.00
  -2  -4  -2   36.70    3.30
  -2  -4  -2   32.00    2.60
   2   4   2   32.80    4.00
  -2   4  -2   37.30    3.10
  -2   4  -2   36.60    1.50
  -2   4  -2   37.60    1.60
  -2   4  -2   34.80    2.70
  -3  -4  -2   89.39    4.60
   3  -4   2   86.69    3.90
  -3  -4  -2   84.29    5.40
  -3   4  -2   93.79    5.50
  -3   4  -2   92.39    5.30
   3   4   2   90.49    5.00
  -3   4  -2   95.79    3.50
  -3   4  -2   93.49    5.20
  -3   4  -2   98.99    3.40
   3   4   2   96.29    3.40
   3   4   2   72.79    6.00
   3   4   2   94.39    3.30
  -4  -4  -2   90.29    4.90
  -4  -4  -2   89.79    5.80
   4  -4   2   84.99    4.00
  -4   4  -2   95.29    5.50
   4   4   2   79.49    5.40
  -4   4  -2   96.89    3.50
   4   4   2   94.99    3.40
   4   4   2   90.59    5.30
  -4   4  -2   95.09    3.60
   4   4   2   91.49    3.40
  -4   4  -2   92.09    5.60
  -4   4  -2   97.29    3.60
  -4   4  -2   95.69    5.20
   5  -4   2  117.29    5.70
  -5  -4  -2  134.09    6.10
  -5  -4  -2  105.59    5.30
   5  -4   2  117.79    7.90
  -5  -4  -2  115.19    4.90
   5  -4   2  135.29    5.00
   5  -4   2  138.59    5.80
  -5  -4  -2  117.79    4.90
  -5   4  -2  143.69    5.30
  -5   4  -2  146.29    5.20
   5   4   2  141.59    5.40
  -5   4  -2  147.19    5.40
   5   4   2  143.89    5.10
   6  -4   2  167.58    8.10
   6  -4   2  173.58    6.50
   6  -4   2  170.08    6.30
   6  -4   2  163.88    7.30
  -6  -4  -2  171.38    6.60
  -6  -4  -2  171.28    6.50
  -6  -4  -2  173.08    6.40
  -6  -4  -2  177.28    6.50
  -6  -4  -2  178.08    7.10
  -6  -4  -2  174.18    6.50
   6  -4   2  177.88    6.90
  -6   4  -2  198.28    7.10
   6   4   2  196.68    7.10
  -6   4  -2  214.98    7.30
  -6   4  -2  196.08    6.90
   6   4   2  191.08    7.00
  -6   4  -2  192.48    7.30
  -6   4  -2  199.18    7.00
   7  -4   2   73.49    4.00
   7  -4   2   81.39    3.60
  -7  -4  -2   79.49    3.80
  -7  -4  -2   80.29    3.30
  -7  -4  -2   81.09    3.30
  -7  -4  -2   79.19    3.40
   7  -4   2   73.19    4.40
  -7  -4  -2   80.59    3.20
  -7  -4  -2   78.59    3.20
   7  -4   2   80.29    3.10
  -7   4  -2   90.59    3.40
  -7   4  -2   90.29    3.40
  -7   4  -2   91.79    3.70
   7   4   2   90.89    3.50
  -7   4  -2   91.49    3.30
   7   4   2   89.19    3.30
   7   4   2   94.99    3.40
  -7   4  -2   90.19    3.50
   8  -4   2   24.60    1.20
   8  -4   2   28.20    2.40
  -8  -4  -2   23.20    1.60
  -8  -4  -2   23.90    1.30
   8  -4   2   21.60    2.00
  -8  -4  -2   25.00    1.40
  -8  -4  -2   24.20    1.20
  -8  -4  -2   23.90    1.30
   8  -4   2   22.30    1.80
   8   4   2   27.30    1.30
   8   4   2   26.70    1.20
  -8   4  -2   28.00    1.40
   8   4   2   26.20    1.40
   8   4   2   25.90    1.40
  -8   4  -2   27.60    1.20
  -8   4  -2   25.80    1.20
  -8   4  -2   29.20    1.10
   8   4   2   27.90    1.60
  -8   4  -2   26.10    1.30
  -9  -4  -2   54.39    2.30
  -9  -4  -2   55.49    2.10
   9  -4   2   61.59    3.10
  -9  -4  -2   55.99    2.80
  -9  -4  -2   55.89    2.30
  -9   4  -2   70.99    3.00
  -9   4  -2   63.79    2.30
   9   4   2   63.69    2.40
   9   4   2   65.69    2.60
   9   4   2   64.39    2.80
  -9   4  -2   68.69    2.50
   9  -5  -2   13.60    1.00
  -9  -5   2   14.90    0.70
  -9  -5   2   13.90    1.00
   9  -5  -2   14.70    1.70
   9  -5  -2   12.00    1.40
  -9  -5   2   14.20    0.70
  -9  -5   2   13.00    1.20
   9   5  -2   15.90    0.70
  -9   5   2   16.60    0.80
   9   5  -2   14.90    0.80
  -9   5   2   16.10    0.80
  -9   5   2   17.90    0.70
  -8  -5   2   12.70    1.00
  -8  -5   2   10.80    0.70
   8  -5  -2   12.80    1.30
   8  -5  -2   11.50    1.50
  -8  -5   2   11.80    0.80
  -8  -5   2   12.30    1.10
   8  -5  -2   11.60    1.20
  -8  -5   2   11.70    0.80
  -8   5   2   12.10    0.70
   8   5  -2   11.60    1.00
  -8   5   2   13.40    0.60
  -8   5   2   12.70    0.70
   8   5  -2   11.60    0.80
  -8   5   2   12.40    0.80
   8   5  -2   13.50    0.70
  -8   5   2   13.40    0.80
  -7  -5   2  112.09    4.60
   7  -5  -2  112.49    4.90
   7  -5  -2  113.79    4.90
  -7  -5   2  113.09    4.20
  -7  -5   2  111.49    4.20
   7  -5  -2  106.49    5.50
  -7  -5   2  112.29    4.80
  -7  -5   2  114.29    4.20
  -7   5   2  135.79    4.70
   7   5  -2  124.49    4.60
  -7   5   2  129.19    4.50
   7   5  -2  124.69    4.50
  -7   5   2  131.49    4.60
  -7   5   2  125.69    4.90
   6  -5  -2  185.88    7.80
   6  -5  -2  198.78    6.90
   6  -5  -2  172.18    8.00
  -6  -5   2  181.88    6.50
   6  -5  -2  170.08    7.50
  -6  -5   2  176.68    7.20
  -6  -5   2  175.68    7.00
  -6  -5   2  183.88    6.70
  -6  -5   2  173.78    6.80
  -6  -5   2  179.78    6.60
   6  -5  -2  175.78    7.30
  -6  -5   2  184.28    6.60
   6   5  -2  195.48    6.90
  -6   5   2  187.78    7.00
  -6   5   2  196.58    6.70
   6   5  -2  197.58    6.70
  -6   5   2  198.28    6.90
  -6   5   2  197.38    7.00
  -6   5   2  195.28    6.80
  -5  -5   2   58.39    2.60
   5  -5  -2   52.19    3.40
   5  -5  -2   58.29    3.60
  -5  -5   2   61.99    2.80
   5  -5  -2   61.39    3.20
   5  -5  -2   62.09    2.90
  -5  -5   2   58.79    2.80
   5  -5  -2   60.19    3.20
  -5  -5   2   58.29    2.50
  -5  -5   2   60.79    2.60
  -5  -5   2   62.09    2.60
  -5  -5   2   59.19    2.90
  -5  -5   2   60.59    3.20
   5  -5  -2   61.09    3.90
   5  -5  -2   62.39    3.10
   5   5  -2   68.19    2.60
  -5   5   2   67.79    2.70
  -5   5   2   67.19    2.60
   4  -5  -2   11.60    1.40
  -4  -5   2   12.30    1.00
  -4  -5   2   13.80    1.00
  -4  -5   2   13.00    1.20
   4  -5  -2   11.40    1.40
   4  -5  -2   12.40    1.70
  -4  -5   2   13.70    1.10
   4  -5  -2   12.30    1.40
  -4  -5   2   12.10    1.20
  -4  -5   2   12.90    0.90
   4  -5  -2   12.90    1.80
  -4  -5   2   13.80    1.30
  -4  -5   2   12.20    1.10
   4  -5  -2   13.00    1.30
  -4  -5   2   11.40    1.00
  -4  -5   2    9.90    1.40
   4  -5  -2   13.40    1.20
  -4  -5   2   13.50    1.40
   4   5  -2   15.60    0.80
  -4   5   2   15.80    0.90
  -4   5   2   14.40    0.80
  -4   5   2   15.00    0.80
  -3  -5   2  187.68    8.10
  -3  -5   2  188.28    8.10
  -3  -5   2  211.58    7.80
  -3  -5   2  194.28    8.30
  -3  -5   2  201.78    8.80
  -3  -5   2  199.58    7.50
  -3  -5   2  191.88    8.60
  -3  -5   2  209.68    8.20
   3  -5  -2  173.48    8.30
   3  -5  -2  222.28    8.40
   3  -5  -2  170.08    9.40
  -3   5   2  217.98    7.50
   2  -5  -2   34.90    2.10
  -2  -5   2   36.30    2.50
  -2  -5   2   33.30    2.70
  -2  -5   2   33.30    1.80
   2  -5  -2   35.30    1.70
  -2  -5   2   33.60    2.10
  -2  -5   2   33.40    1.90
  -2  -5   2   32.30    2.50
  -2  -5   2   33.80    2.70
   2  -5  -2   33.70    2.30
  -2  -5   2   34.80    1.90
   2  -5  -2   32.00    2.60
  -2  -5   2   33.20    1.70
   2  -5  -2   33.50    2.20
  -2  -5   2   34.20    1.90
  -2  -5   2   32.90    1.60
  -2  -5   2   34.40    2.00
   2  -5  -2   33.50    2.60
   2  -5  -2   35.30    2.10
  -2   5   2   38.60    4.00
  -2   5   2   38.80    1.60
  -2   5   2   38.70    1.50
   1  -5  -2  101.09    4.00
  -1  -5   2   95.29    4.40
   1  -5  -2   92.99    4.80
   1  -5  -2  104.69    5.90
  -1  -5   2  100.69    3.80
  -1  -5   2  100.29    5.10
  -1  -5   2  100.59    4.00
   1  -5  -2  103.59    5.60
  -1  -5   2  101.99    4.70
   1  -5  -2   85.79    5.10
  -1  -5   2   88.59    4.50
   1  -5  -2  101.29    5.20
  -1  -5   2   82.19    5.80
  -1   5   2  112.59    3.80
   1   5  -2  106.69    6.70
   0  -5  -2  350.66   11.50
   0  -5   2  325.87   12.80
   0  -5   2  283.47   12.40
   0  -5  -2  326.07   12.30
   0  -5   2  306.77   11.40
   0  -5   2  327.67   11.70
   0  -5  -2  318.87   11.90
   0  -5  -2  303.07   12.60
   0  -5   2  284.77   13.10
   0  -5  -2  319.87   12.40
   0  -5  -2  327.67   12.30
   0  -5  -2  334.17   11.90
   0  -5   2  342.57   11.60
   0  -5   2  341.77   11.70
   0   5  -2  342.07   14.40
   0   5  -2  366.26   15.10
   0   5  -2  377.26   12.30
   0   5  -2  343.87   14.30
   1  -5   2   16.40    1.30
  -1  -5  -2   12.40    1.40
  -1  -5  -2   14.10    1.50
   1  -5   2   15.90    1.10
  -1  -5  -2   16.00    1.30
  -1  -5  -2   15.10    1.60
  -1  -5  -2   15.50    1.30
   1  -5   2   14.20    2.00
   1  -5   2   12.70    1.50
  -1  -5  -2   15.50    1.10
  -1  -5  -2   14.70    1.00
   1  -5   2   14.30    1.10
  -1  -5  -2   11.10    1.40
  -1  -5  -2   14.00    1.20
   1  -5   2   15.70    1.60
  -1  -5  -2   14.40    1.10
   1  -5   2   15.20    1.80
  -1  -5  -2   13.50    1.20
  -1  -5  -2   14.30    1.40
   1  -5   2   14.30    1.20
   1  -5   2   15.20    0.90
  -1   5  -2   17.10    3.20
  -1   5  -2   17.90    0.80
  -1   5  -2   16.70    0.90
  -2  -5  -2   12.50    1.20
  -2  -5  -2   11.90    1.40
  -2  -5  -2   11.30    1.90
  -2  -5  -2   11.20    1.20
  -2  -5  -2    8.00    1.30
  -2  -5  -2   10.00    1.70
   2  -5   2    9.20    2.30
  -2   5  -2   13.00    0.70
  -2   5  -2   12.60    0.80
  -3  -5  -2   47.00    2.20
  -3  -5  -2   49.40    2.40
   3  -5   2   47.30    2.70
  -3  -5  -2   46.60    2.30
  -3  -5  -2   53.99    2.60
  -3  -5  -2   48.80    2.70
   3  -5   2   49.50    2.20
   3  -5   2   45.20    2.90
  -3  -5  -2   48.30    2.50
  -3  -5  -2   52.79    2.40
  -3  -5  -2   49.30    2.60
  -3  -5  -2   47.60    2.40
   3  -5   2   51.19    2.70
   3  -5   2   46.30    2.20
  -3  -5  -2   56.59    3.00
  -3  -5  -2   49.70    2.70
   3  -5   2   46.70    3.10
   3  -5   2   45.70    3.60
  -3   5  -2   56.29    2.20
   3   5   2   61.49    2.20
  -3   5  -2   55.49    2.30
  -3   5  -2   56.39    2.40
   4  -5   2  255.87   10.50
   4  -5   2  256.87   10.60
  -4  -5  -2  271.07    9.80
   4  -5   2  277.87   10.20
  -4  -5  -2  263.37    9.70
  -4  -5  -2  264.17   10.00
  -4  -5  -2  280.37    9.80
   4  -5   2  265.17   11.60
  -4  -5  -2  263.27    9.70
  -4  -5  -2  273.77   10.20
  -4  -5  -2  272.97    9.90
  -4  -5  -2  305.37   10.20
   4  -5   2  265.47   10.10
  -4   5  -2  305.07   10.30
   4   5   2  296.27   10.20
  -4   5  -2  306.17   10.50
  -4   5  -2  305.87   10.40
  -4   5  -2  288.27   10.30
   5  -5   2   25.60    2.00
   5  -5   2   28.20    2.70
   5  -5   2   24.60    2.40
   5  -5   2   25.70    2.20
  -5  -5  -2   29.20    1.50
  -5  -5  -2   28.20    1.60
  -5  -5  -2   26.90    1.50
  -5  -5  -2   29.90    1.60
  -5  -5  -2   27.00    1.70
   5  -5   2   28.40    1.70
  -5  -5  -2   27.70    1.60
  -5  -5  -2   29.30    2.00
  -5   5  -2   32.00    1.50
   5   5   2   30.70    1.40
  -5   5  -2   30.20    1.40
  -5   5  -2   31.40    1.40
  -5   5  -2   29.50    1.30
  -5   5  -2   29.70    1.50
   5   5   2   29.00    1.30
  -6  -5  -2  284.37   10.30
  -6  -5  -2  282.67   11.60
  -6  -5  -2  328.87   11.00
   6  -5   2  262.47   11.00
   6  -5   2  299.97   13.00
  -6  -5  -2  279.87   10.20
  -6  -5  -2  281.67   10.20
   6  -5   2  301.57   10.30
   6  -5   2  288.97   10.60
  -6   5  -2  309.57   10.60
   6   5   2  310.87   10.40
  -6   5  -2  316.97   10.60
  -6   5  -2  283.67   11.10
  -6   5  -2  308.67   10.50
   6   5   2  302.97   10.60
  -6   5  -2  306.47   10.50
  -7  -5  -2    0.50    0.70
  -7  -5  -2    1.80    0.40
   7  -5   2   -0.20    2.20
   7  -5   2    1.50    0.90
  -7  -5  -2    2.70    0.50
  -7  -5  -2    1.40    0.70
   7  -5   2    2.80    0.90
  -7   5  -2   72.89   22.00
  -8  -5  -2   15.90    1.00
  -8  -5  -2   14.90    1.00
   8  -5   2   12.30    1.50
  -8  -5  -2   15.90    0.80
   8  -5   2   14.50    1.20
  -8  -5  -2   16.30    0.80
  -8   5  -2   18.40    1.00
  -8   5  -2   17.30    0.90
   8   5   2   17.20    0.90
  -8   5  -2   17.70    0.70
   8   5   2   18.10    0.80
  -8  -6   2   59.89    2.40
  -8  -6   2   61.99    2.20
  -8  -6   2   62.89    2.60
   8  -6  -2   64.39    3.30
  -8  -6   2   62.29    2.30
   8  -6  -2   63.29    2.50
  -8   6   2   67.59    2.40
  -8   6   2   69.99    2.60
  -7  -6   2   10.60    1.30
  -7  -6   2    8.50    0.50
   7  -6  -2    8.30    0.80
  -7  -6   2    8.30    0.80
   7  -6  -2    5.60    1.20
  -7  -6   2    9.60    0.80
   7  -6  -2    6.80    1.10
  -7  -6   2    7.80    0.60
  -7   6   2    8.70    0.50
  -7   6   2    8.70    0.40
  -7   6   2    8.40    0.60
  -6  -6   2    9.80    1.00
   6  -6  -2    7.50    1.10
  -6  -6   2    8.00    0.60
  -6  -6   2    8.10    0.80
  -6  -6   2    8.40    0.60
   6  -6  -2    7.40    1.10
   6  -6  -2    6.50    1.10
  -6  -6   2    8.60    0.90
   6  -6  -2    9.10    1.00
  -6  -6   2    8.40    0.60
  -6   6   2    9.10    0.80
  -6   6   2    7.60    0.80
  -6   6   2    9.30    0.50
  -6   6   2    9.00    0.50
  -5  -6   2    3.30    1.10
   5  -6  -2    3.30    0.90
  -5  -6   2    3.20    0.70
  -5  -6   2    3.90    0.60
  -5  -6   2    2.60    0.60
   5  -6  -2    3.80    1.10
   5  -6  -2    3.70    0.90
  -5  -6   2    2.30    0.70
   5  -6  -2    4.00    0.70
  -5  -6   2    3.60    0.60
   5  -6  -2    2.40    0.70
  -5  -6   2    2.60    0.50
   5  -6  -2    3.30    0.80
  -5   6   2    3.30    0.40
  -5   6   2    4.10    0.40
  -5   6   2    3.60    0.60
  -4  -6   2   47.10    2.00
   4  -6  -2   44.80    3.00
  -4  -6   2   48.90    2.20
  -4  -6   2   44.10    2.00
   4  -6  -2   51.49    2.90
   4  -6  -2   49.60    2.60
   4  -6  -2   45.90    2.80
   4  -6  -2   47.70    2.60
  -4  -6   2   52.99    2.70
   4  -6  -2   47.90    2.40
  -4  -6   2   46.90    2.30
  -4  -6   2   47.70    2.20
  -4  -6   2   45.70    2.30
  -4  -6   2   46.40    2.50
  -4  -6   2   46.30    2.10
  -4  -6   2   50.09    3.00
  -4   6   2   49.10    1.90
  -4   6   2   49.10    2.10
  -4   6   2   47.40    1.90
  -3  -6   2   29.10    1.50
   3  -6  -2   28.40    1.80
  -3  -6   2   26.90    2.00
   3  -6  -2   30.90    1.80
  -3  -6   2   29.30    1.60
  -3  -6   2   28.30    1.70
  -3  -6   2   29.60    2.00
  -3  -6   2   28.30    1.60
  -3  -6   2   27.70    1.80
  -3  -6   2   25.40    1.40
  -3  -6   2   29.70    1.50
  -3  -6   2   28.80    1.50
   3  -6  -2   26.50    2.30
  -3  -6   2   29.30    1.80
  -3  -6   2   27.20    2.00
  -3  -6   2   27.70    1.60
  -3  -6   2   29.70    1.40
   3  -6  -2   27.60    1.90
   3  -6  -2   28.80    1.90
   3  -6  -2   28.30    2.20
  -3   6   2   29.20    1.20
  -3   6   2   30.10    1.30
  -2  -6   2   29.70    1.90
  -2  -6   2   29.30    1.40
   2  -6  -2   28.60    2.20
   2  -6  -2   28.60    1.90
   2  -6  -2   29.20    1.80
  -2  -6   2   25.70    1.50
   2  -6  -2   28.80    1.80
  -2  -6   2   27.30    2.00
  -2  -6   2   28.20    1.80
  -2  -6   2   27.00    1.50
  -2  -6   2   28.10    1.60
  -2  -6   2   27.90    1.50
   2  -6  -2   28.00    2.20
  -2  -6   2   26.80    2.00
  -2  -6   2   28.30    1.70
  -2  -6   2   26.40    1.40
  -2  -6   2   27.00    2.20
  -2  -6   2   29.30    1.70
   2  -6  -2   28.10    1.70
  -2   6   2   31.40    1.30
  -2   6   2   27.70    1.10
  -1  -6   2   76.09    4.30
   1  -6  -2   81.59    3.40
   1  -6  -2   77.39    3.50
   1  -6  -2   78.79    4.10
  -1  -6   2   80.19    3.70
   1  -6  -2   80.19    3.60
  -1  -6   2   78.99    3.50
  -1  -6   2   77.29    3.00
   1  -6  -2   79.79    3.80
   1  -6  -2   80.79    3.50
  -1  -6   2   78.39    3.50
  -1  -6   2   76.19    4.00
  -1  -6   2   80.09    3.90
   1  -6  -2   80.69    4.10
  -1  -6   2   76.09    3.30
   1  -6  -2   82.39    3.20
  -1  -6   2   76.29    3.20
  -1  -6   2   76.19    3.30
  -1  -6   2   80.79    3.10
   1  -6  -2   81.19    3.60
  -1  -6   2   79.59    3.40
   1  -6  -2   79.49    3.60
   0  -6   2  105.99    5.30
   0  -6   2  118.29    5.30
   0  -6  -2  118.99    4.60
   0  -6  -2  120.09    5.10
   0  -6  -2  119.39    4.70
   0  -6  -2  116.99    4.40
   0  -6  -2  119.49    4.90
   0  -6   2  115.99    5.90
   0  -6   2  115.49    5.10
   0  -6   2  117.89    4.60
   0  -6  -2  119.09    4.90
   0  -6  -2  123.89    5.50
   0  -6  -2  119.19    4.90
   0  -6   2  123.09    4.80
   0  -6  -2  118.09    5.40
   0  -6   2  118.59    5.00
   0  -6   2  118.99    5.50
   0  -6   2  122.29    4.70
   0  -6  -2  121.09    4.90
   0  -6  -2  125.99    4.60
  -1  -6  -2  130.99    5.60
  -1  -6  -2  129.49    5.10
  -1  -6  -2  127.19    5.10
   1  -6   2  128.29    5.80
  -1  -6  -2  127.89    5.50
   1  -6   2  122.49    6.20
  -1  -6  -2  128.99    5.10
  -1  -6  -2  126.09    4.80
   1  -6   2  123.89    5.30
   1  -6   2  123.89    4.90
   1  -6   2  122.09    5.10
  -1  -6  -2  127.59    5.10
  -1  -6  -2  128.49    4.90
  -1  -6  -2  126.49    5.20
  -1  -6  -2  130.39    4.70
  -1  -6  -2  128.29    5.30
   1  -6   2  121.99    4.80
   1  -6   2  126.09    5.50
  -1   6  -2  129.99    4.70
  -1   6  -2  131.39    4.60
  -2  -6  -2   60.59    2.80
   2  -6   2   58.59    3.10
   2  -6   2   62.49    3.20
   2  -6   2   60.69    2.60
   2  -6   2   60.99    3.40
  -2  -6  -2   70.39    3.40
  -2  -6  -2   62.19    2.60
   2  -6   2   62.69    2.90
  -2  -6  -2   62.99    2.60
  -2  -6  -2   61.69    2.90
  -2  -6  -2   60.89    2.60
  -2  -6  -2   61.99    2.80
  -2  -6  -2   63.99    2.80
   2  -6   2   59.39    2.60
  -2  -6  -2   63.49    3.20
   2  -6   2   60.19    3.90
  -2  -6  -2   60.49    3.00
  -2  -6  -2   62.99    2.90
  -2  -6  -2   67.49    3.00
  -2   6  -2   68.99    2.60
  -2   6  -2   63.59    2.40
  -2   6  -2   63.09    2.50
  -3  -6  -2  102.29    5.00
  -3  -6  -2  112.39    4.10
  -3  -6  -2  101.09    4.00
   3  -6   2   96.49    4.50
  -3  -6  -2  100.39    4.10
   3  -6   2   97.39    5.30
  -3  -6  -2  102.29    4.00
  -3  -6  -2  102.99    4.30
  -3  -6  -2   96.69    4.00
  -3  -6  -2  101.89    4.30
  -3  -6  -2  102.99    3.90
   3  -6   2   96.79    4.30
   3  -6   2   98.99    4.20
   3  -6   2  101.19    4.70
  -3   6  -2  102.89    3.80
  -3   6  -2  100.29    3.70
  -4  -6  -2   30.50    1.60
   4  -6   2   29.80    1.90
  -4  -6  -2   29.40    1.50
  -4  -6  -2   30.50    1.70
  -4  -6  -2   29.70    1.70
   4  -6   2   28.20    1.90
  -4  -6  -2   29.80    1.60
   4  -6   2   30.50    1.70
   4  -6   2   27.00    1.90
  -4  -6  -2   29.20    1.50
   4  -6   2   29.10    2.40
  -4  -6  -2   31.10    1.50
  -4   6  -2   31.80    1.30
  -4   6  -2   32.30    1.40
  -4   6  -2   31.40    1.40
   5  -6   2   25.00    2.10
   5  -6   2   25.80    1.40
  -5  -6  -2   26.40    1.40
  -5  -6  -2   26.50    1.50
   5  -6   2   23.10    1.70
  -5  -6  -2   25.60    1.30
  -5  -6  -2   27.50    1.40
  -5  -6  -2   25.20    1.30
  -5  -6  -2   26.40    1.30
   5  -6   2   26.20    1.60
   5  -6   2   26.30    1.60
  -5   6  -2   29.60    1.30
  -5   6  -2   27.50    1.20
  -5   6  -2   27.30    1.30
  -5   6  -2   27.90    1.20
  -6  -6  -2    3.70    0.40
   6  -6   2    3.60    0.80
  -6  -6  -2    4.30    0.50
  -6  -6  -2    4.30    0.40
   6  -6   2    4.70    0.70
  -6  -6  -2    3.50    0.50
   6  -6   2    2.60    0.70
  -6  -6  -2    4.40    0.60
  -6   6  -2    4.20    0.40
  -6   6  -2    4.00    0.30
  -5  -7   2   61.79    2.20
   5  -7  -2   53.69    3.10
  -5  -7   2   57.99    2.40
   5  -7  -2   62.99    2.60
   5  -7  -2   70.09    2.80
  -5  -7   2   60.19    2.30
  -5  -7   2   61.29    2.30
  -5  -7   2   59.19    2.40
   4  -7  -2   64.59    3.10
  -4  -7   2   67.79    2.60
  -4  -7   2   67.69    2.60
   4  -7  -2   68.29    2.80
   4  -7  -2   67.99    2.60
  -4  -7   2   70.29    2.50
  -4  -7   2   61.69    2.50
  -4  -7   2   66.59    2.70
   4  -7  -2   71.29    2.90
   3  -7  -2   61.69    2.90
  -3  -7   2   59.09    2.70
   3  -7  -2   60.39    2.60
   3  -7  -2   69.39    3.20
  -3  -7   2   61.29    2.70
  -3  -7   2   67.59    2.80
   3  -7  -2   66.59    2.60
  -3  -7   2   68.59    2.80
   3  -7  -2   69.89    2.70
   3  -7  -2   65.59    3.50
  -3  -7   2   58.39    2.50
   2  -7  -2   63.39    3.00
  -2  -7   2   60.59    2.50
   2  -7  -2   61.69    2.80
   2  -7  -2   60.39    3.00
  -2  -7   2   61.99    2.60
   2  -7  -2   67.89    3.00
   2  -7  -2   61.89    2.70
  -2  -7   2   59.69    2.40
  -2  -7   2   56.79    3.00
  -2  -7   2   60.19    3.10
  -2  -7   2   59.99    2.70
  -2  -7   2   61.99    2.50
  -1  -7   2   27.60    2.00
  -1  -7   2   31.90    1.90
  -1  -7   2   30.50    2.00
  -1  -7   2   31.40    1.60
   1  -7  -2   36.10    1.80
  -1  -7   2   32.70    1.60
   1  -7  -2   33.60    1.60
  -1  -7   2   37.90    1.90
   1  -7  -2   33.20    1.90
   1  -7  -2   33.90    1.60
   1  -7  -2   32.30    1.70
   1  -7  -2   31.60    1.60
  -1  -7   2   31.30    1.70
   1  -7  -2   32.60    1.90
   0  -7   2   12.70    1.20
   0  -7  -2   11.90    0.70
   0  -7   2   13.20    0.80
   0  -7  -2   13.30    0.90
   0  -7  -2   13.40    1.20
   0  -7   2   11.50    1.00
   0  -7  -2   12.10    0.90
   0  -7  -2   11.60    1.10
   0  -7   2   11.30    0.90
   0  -7   2   11.70    1.20
   0  -7   2   11.20    1.10
   0  -7  -2   13.00    1.00
   0  -7  -2   11.90    1.10
   0  -7  -2   10.40    0.80
  -1  -7  -2    7.90    0.80
  -1  -7  -2    7.30    0.70
   1  -7   2    8.40    1.10
   1  -7   2    8.40    1.00
  -1  -7  -2    8.40    0.90
  -1  -7  -2    7.70    0.50
   1  -7   2    7.30    0.80
  -1  -7  -2    8.10    0.80
  -1  -7  -2    8.40    0.70
   1  -7   2    6.70    0.80
  -1  -7  -2    7.30    0.60
  -2  -7  -2   89.69    3.70
   2  -7   2  106.29    4.20
  -2  -7  -2   95.99    3.80
  -2  -7  -2   99.19    3.50
  -2  -7  -2  106.79    4.00
  -2  -7  -2   94.49    3.60
   2  -7   2   97.09    3.90
  -2  -7  -2   90.69    3.70
   2  -7   2   96.49    4.10
   2  -7   2  102.39    4.80
  -3  -7  -2    1.50    0.40
   3  -7   2    1.20    0.60
   3  -7   2    1.20    0.40
  -3  -7  -2    0.90    0.30
  -3  -7  -2    1.90    0.30
   3  -7   2    0.70    0.40
  -3  -7  -2    1.20    0.30
  -3  -7  -2    1.00    0.50
   3  -7   2    1.60    0.50
  -3  -7  -2    1.10    0.30
 -13   0   3   38.10    2.00
 -13   0   3   40.10    1.70
 -13   0   3   39.10    1.50
  13   0  -3   40.50    1.60
 -13   0   3   39.90    1.60
 -12   0   3  341.77   13.50
 -12   0   3  394.66   13.00
 -12   0   3  388.16   13.10
 -12   0   3  336.37   13.70
  12   0  -3  410.86   13.50
  12   0  -3  406.86   13.00
 -11   0   3   71.49    3.30
 -11   0   3   70.79    2.90
 -11   0   3   69.49    2.90
  11   0  -3   70.69    2.90
  10   0  -3    4.40    1.20
 -10   0   3    4.10    0.70
  10   0  -3    1.80    1.10
 -10   0   3    4.20    1.10
  10   0  -3    4.30    0.40
  10   0  -3    4.70    1.00
 -10   0   3    4.80    0.70
  10   0  -3    4.70    0.70
  -9   0   3  108.59    4.30
  -9   0   3  114.79    4.80
   9   0  -3  111.49    4.10
  -9   0   3  107.49    4.30
   9   0  -3  107.89    4.30
   9   0  -3  110.89    3.90
  -8   0   3  180.88    6.90
   8   0  -3  170.78    7.50
  -8   0   3  188.98    8.80
  -8   0   3  177.88    7.90
   8   0  -3  174.38    6.50
   7   0  -3   46.40    1.90
   7   0  -3   49.70    2.90
  -7   0   3   53.49    3.10
  -7   0   3   47.70    2.80
   7   0  -3   49.60    2.00
  -7   0   3   48.50    3.00
   7   0  -3   48.30    2.70
   6   0  -3  820.72   27.50
  -6   0   3  808.42   27.50
   6   0  -3  805.02   27.30
  -6   0   3  785.52   27.60
  -6   0   3  788.42   27.10
   6   0  -3  760.82   27.20
  -5   0   3  435.16   15.20
  -5   0   3  440.26   15.70
   5   0  -3  438.26   15.40
   5   0  -3  452.25   15.50
  -5   0   3  448.36   15.60
  -4   0   3  595.44   20.50
  -4   0   3  620.64   20.70
   4   0  -3  609.84   20.60
  -4   0   3  598.14   20.80
   4   0  -3  595.44   20.60
  -3   0   3 1162.18   38.70
  -3   0   3 1167.88   38.50
   3   0  -3 1143.09   38.60
   3   0  -3 1126.69   38.60
   2   0  -3 2323.57   76.19
   2   0  -3 2345.67   76.19
   2   0  -3 2194.58   76.09
  -1   0   3   44.90    1.90
  -1   0   3   43.90    1.80
   1   0  -3   45.80    1.80
   1   0  -3   47.90    1.90
  -1   0   3   43.00    1.70
   0   0  -3 3547.85  118.59
   0   0  -3 3538.55  118.59
   0   0  -3 3575.34  118.69
   0   0   3 3613.74  118.39
  -1   0  -3   22.30    1.10
  -1   0  -3   20.80    1.10
   1   0   3   20.80    1.10
   1   0   3   22.10    1.20
  -2   0  -3  393.46   14.00
  -2   0  -3  412.56   14.30
  -2   0  -3  413.46   14.00
  -2   0  -3  405.46   14.10
   2   0   3  404.46   14.10
  -3   0  -3  100.79    4.20
   3   0   3  100.49    4.10
  -3   0  -3   99.69    4.00
  -3   0  -3  103.29    4.10
   3   0   3   92.49    3.80
  -4   0  -3 2843.22   94.39
   4   0   3 2744.53   93.99
   4   0   3 2872.81   94.39
  -4   0  -3 2799.42   94.19
   4   0   3 2719.13   94.19
   4   0   3 2881.41   94.29
   4   0   3 2816.42   93.59
  -4   0  -3 2859.31   94.59
   5   0   3    6.80   11.00
  -5   0  -3    0.00    0.80
   5   0   3    0.50    0.90
  -5   0  -3    1.50    0.90
   5   0   3    0.90    1.10
  -5   0  -3   -0.60    0.70
  -6   0  -3   66.29    5.20
   6   0   3   70.09    3.40
   6   0   3   75.89    3.10
  -6   0  -3   63.49    3.50
   6   0   3   72.19    3.90
  -6   0  -3   71.49    4.00
  -6   0  -3   70.59    3.40
   7   0   3    1.50    0.50
   7   0   3    0.30    1.90
   7   0   3    2.40    0.60
   7   0   3    2.70    0.90
  -7   0  -3    3.30    0.90
   7   0   3   -6.20   15.80
  -7   0  -3   -0.70    1.90
  -8   0  -3   12.70    1.30
  -8   0  -3   10.40    1.00
  -8   0  -3   12.10    1.00
   8   0   3   10.90    1.00
   8   0   3   11.10    1.40
  -9   0  -3    0.20    0.20
  -9   0  -3    0.00    0.20
  -9   0  -3    0.30    0.20
   9   0   3    0.50    0.30
   9   0   3    0.40    0.30
 -10   0  -3   29.60    1.90
  10   0   3   33.50    1.60
 -10   0  -3   34.80    1.50
 -10   0  -3   34.80    1.60
 -10   0  -3   33.10    1.50
 -11   0  -3  103.79    4.10
 -11   0  -3  116.49    4.10
 -11   0  -3  111.09    4.30
  11   0   3  119.29    4.10
 -11   0  -3  120.09    4.10
 -12  -1   3    9.50    0.80
 -12  -1   3   10.00    0.70
  12  -1  -3    9.30    0.80
  12  -1  -3    9.80    0.70
 -12  -1   3    9.40    0.60
  12   1  -3   10.00    0.70
 -12   1   3    9.10    0.80
 -12   1   3    9.60    1.00
 -12   1   3    9.90    0.70
  12   1  -3    9.70    0.50
  11  -1  -3   86.69    4.00
  11  -1  -3   91.29    3.70
 -11  -1   3   88.49    3.40
 -11  -1   3   86.89    3.40
 -11  -1   3   88.59    3.90
 -11  -1   3   87.09    4.00
  11  -1  -3   81.39    3.60
  11   1  -3   93.29    3.20
  11   1  -3   92.39    3.60
 -11   1   3   88.99    3.60
  11   1  -3   89.49    3.40
 -11   1   3   88.79    3.60
  10  -1  -3  399.86   14.60
 -10  -1   3  406.16   14.30
  10  -1  -3  406.26   14.10
 -10  -1   3  395.16   14.00
 -10  -1   3  405.96   13.90
  10  -1  -3  401.36   14.10
 -10   1   3  407.86   14.30
  10   1  -3  407.26   14.20
  10   1  -3  408.16   13.70
  10   1  -3  396.56   13.90
 -10   1   3  395.56   14.10
 -10   1   3  415.96   14.80
  10   1  -3  411.46   14.00
  10   1  -3  412.66   13.90
 -10   1   3  400.56   14.20
   9  -1  -3   57.39    2.70
  -9  -1   3   64.09    3.00
   9  -1  -3   53.69    2.60
  -9  -1   3   65.39    3.20
  -9  -1   3   62.89    3.30
   9  -1  -3   59.79    3.20
   9   1  -3   69.59    2.70
   9   1  -3   64.19    2.50
  -9   1   3   58.89    2.80
   9   1  -3   62.29    2.60
  -9   1   3   58.59    3.10
  -9   1   3   58.99    2.70
  -9   1   3   59.89    2.70
   9   1  -3   62.09    2.50
   8  -1  -3    7.20    1.90
  -8  -1   3    9.40    3.00
  -8  -1   3    8.10    0.90
   8  -1  -3    1.50    2.50
  -8   1   3    9.30    2.00
   8   1  -3    6.90    2.00
   8   1  -3    7.30    0.60
  -8   1   3    9.10    1.00
  -8   1   3    6.70    1.70
   8   1  -3   10.50    0.80
   8   1  -3    7.80    2.00
   8   1  -3    8.00    0.70
   7  -1  -3    7.10    1.70
   7  -1  -3    8.40    1.60
  -7  -1   3    7.00    0.80
  -7  -1   3    8.50    1.80
  -7  -1   3    5.30    1.60
  -7   1   3    4.70    1.20
   7   1  -3   11.70    1.50
  -7   1   3    8.50    2.00
  -7   1   3    7.40    1.00
   7   1  -3    7.80    1.50
  -7   1   3   -2.20    8.50
   7   1  -3    7.70    0.60
   7   1  -3    8.90    0.70
  -7   1   3    7.20    1.40
  -6  -1   3  854.41   30.20
   6  -1  -3  890.71   30.20
  -6  -1   3  877.21   29.70
  -6  -1   3  848.62   29.50
   6  -1  -3  897.81   29.90
   6   1  -3  887.11   29.70
   6   1  -3  864.81   29.00
  -6   1   3  839.12   28.90
  -6   1   3  851.21   29.40
   6   1  -3  865.41   29.60
  -6   1   3  856.61   28.80
  -6   1   3  864.91   29.50
   6   1  -3  866.41   28.90
  -6   1   3  868.31   29.80
  -6   1   3  864.51   29.80
  -5  -1   3  430.56   15.10
  -5  -1   3  430.46   15.10
  -5  -1   3  405.76   14.30
   5  -1  -3  431.06   15.00
  -5  -1   3  408.56   14.50
   5  -1  -3  419.86   14.70
  -5   1   3  424.16   14.70
  -5   1   3  418.46   14.50
   5   1  -3  418.96   14.60
  -5   1   3  413.76   14.80
   5   1  -3  406.16   14.50
   5   1  -3  400.86   13.90
   4  -1  -3  471.65   16.10
  -4  -1   3  478.45   15.80
  -4  -1   3  432.46   16.00
  -4  -1   3  468.85   16.30
  -4  -1   3  473.05   16.30
   4  -1  -3  467.75   16.30
  -4   1   3  463.85   16.10
  -4   1   3  461.35   16.00
   4   1  -3  456.45   15.90
   4   1  -3  462.75   16.00
  -4   1   3  472.45   16.10
  -3  -1   3 1574.14   52.99
   3  -1  -3 1573.24   52.89
   3  -1  -3 1517.85   52.29
   3  -1  -3 1651.23   52.79
  -3  -1   3 1530.75   52.69
  -3  -1   3 1628.94   52.49
  -3  -1   3 1543.15   52.89
   3   1  -3 1521.65   52.19
  -3   1   3 1594.34   52.39
  -3   1   3 1540.45   52.39
   3   1  -3 1576.04   52.29
  -3   1   3 1586.54   52.29
  -2  -1   3 2561.24   87.69
  -2  -1   3 2657.13   87.69
   2  -1  -3 2690.33   87.59
   2  -1  -3 2600.14   87.19
  -2  -1   3 2628.94   87.69
   2   1  -3 2625.44   86.49
   2   1  -3 2606.04   86.69
  -2   1   3 2552.14   86.69
   2   1  -3 2625.34   86.59
   1  -1  -3 1146.79   38.70
   1  -1  -3 1153.38   39.10
  -1  -1   3 1212.68   39.20
  -1  -1   3 1134.89   39.10
  -1   1   3 1165.58   38.70
  -1   1   3 1174.08   38.70
   1   1  -3 1131.89   38.70
   1   1  -3 1157.58   38.70
   0  -1   3   49.30    1.80
   0  -1   3   46.90    2.10
   0  -1  -3   48.80    1.90
   0  -1   3   47.70    2.30
   0  -1  -3   52.49    2.50
   0   1  -3   45.60    2.10
   0   1  -3   48.60    1.90
   0   1  -3   48.80    2.00
   0   1   3   47.10    1.90
   1  -1   3  432.36   15.30
  -1  -1  -3  433.06   15.80
  -1  -1  -3  448.36   15.20
  -1  -1  -3  458.45   15.10
   1  -1   3  453.55   15.10
   1   1   3  427.46   14.70
   1   1   3  426.46   14.40
  -1   1  -3  412.96   14.70
  -1   1  -3  432.86   14.50
  -2  -1  -3  578.34   19.90
  -2  -1  -3  595.54   20.00
   2  -1   3  606.74   19.90
   2  -1   3  580.24   20.10
  -2  -1  -3  562.84   20.50
   2   1   3  548.65   19.40
  -2   1  -3  587.54   19.90
   2   1   3  580.34   19.80
  -2   1  -3  574.64   19.50
  -2   1  -3  588.04   19.60
  -2   1  -3  564.04   20.00
  -3  -1  -3  995.50   33.00
   3  -1   3 1010.80   32.90
   3  -1   3  921.81   32.80
  -3  -1  -3  979.40   33.60
   3  -1   3  964.90   32.90
  -3  -1  -3  986.40   33.00
  -3  -1  -3  925.91   32.70
  -3   1  -3  981.30   33.10
  -3   1  -3  987.80   33.80
  -3   1  -3  997.20   33.70
   3   1   3  961.60   32.90
  -3   1  -3  992.90   33.40
   3   1   3  999.70   33.60
   4  -1   3   80.99    3.50
  -4  -1  -3   69.79    3.50
  -4  -1  -3   77.29    3.50
  -4  -1  -3   76.09    3.20
  -4  -1  -3   81.79    3.60
  -4  -1  -3   77.19    4.00
   4  -1   3   74.39    3.30
  -4   1  -3   76.79    3.50
   4   1   3   78.29    3.70
  -4   1  -3   76.99    3.70
  -4   1  -3   79.49    3.80
  -4   1  -3   74.99    2.90
   4   1   3   75.49    2.80
   4   1   3   73.49    3.10
  -4   1  -3   78.09    3.50
   4   1   3   79.89    3.60
   5  -1   3   24.60    1.90
  -5  -1  -3   23.60    2.10
  -5  -1  -3   24.50    1.60
  -5  -1  -3   24.80    2.60
  -5  -1  -3   22.40    1.80
   5  -1   3   25.90    2.10
   5   1   3   25.60    1.80
  -5   1  -3   24.60    2.00
   5   1   3   25.60    2.20
  -5   1  -3   24.70    2.10
   5   1   3   27.80    2.10
   5   1   3   25.20    1.20
  -5   1  -3   25.00    1.80
  -6  -1  -3   19.30    1.40
   6  -1   3   19.10    1.50
  -6  -1  -3   14.80    2.10
   6  -1   3   21.50    2.50
  -6   1  -3   21.50    2.40
   6   1   3   19.00    1.70
   6   1   3   19.50    1.00
  -6   1  -3   22.40    1.70
  -6   1  -3   17.50    2.20
   6   1   3   20.10    1.10
   6   1   3   20.10    1.10
   6   1   3   22.50    2.40
  -7  -1  -3   15.90    1.10
   7  -1   3   16.60    1.20
  -7  -1  -3   15.20    1.30
  -7  -1  -3   14.90    1.10
   7  -1   3   13.50    1.30
   7  -1   3   15.80    1.50
   7   1   3   17.00    1.20
  -7   1  -3   15.20    1.50
   7   1   3   15.80    0.80
   7   1   3   14.50    1.70
   7   1   3   16.70    1.00
  -7   1  -3   18.40    1.20
  -7   1  -3   18.20    1.50
  -7   1  -3   14.40    1.40
   7   1   3   16.00    1.30
   8  -1   3    6.80    1.70
   8  -1   3    9.80    1.00
  -8  -1  -3    9.90    0.90
   8  -1   3   10.40    0.90
  -8  -1  -3   11.10    1.80
  -8  -1  -3    9.70    0.90
   8   1   3    9.90    0.80
  -8   1  -3   10.80    1.00
  -8   1  -3   10.40    1.00
   8   1   3   10.60    2.20
   8   1   3   10.40    0.70
   8   1   3   11.10    0.90
  -8   1  -3   10.40    0.90
  -8   1  -3   11.00    1.80
   8   1   3   13.40    1.20
  -9  -1  -3   47.90    2.50
  -9  -1  -3   47.20    2.10
   9  -1   3   46.60    2.20
  -9  -1  -3   48.30    2.20
  -9  -1  -3   47.90    2.10
   9  -1   3   48.00    2.10
   9   1   3   -5.00   21.30
   9   1   3   49.80    2.10
  -9   1  -3   48.30    2.30
   9   1   3   50.59    2.30
  -9   1  -3   50.19    2.20
  -9   1  -3   49.60    2.80
  -9   1  -3   51.39    2.10
  10  -1   3   39.30    1.90
 -10  -1  -3   36.90    1.70
 -10  -1  -3   38.80    2.00
 -10  -1  -3   37.60    1.70
  10  -1   3   38.70    1.90
 -10  -1  -3   37.60    1.60
  10   1   3   41.10    1.50
 -10   1  -3   39.20    1.70
  10   1   3   41.10    1.80
 -10   1  -3   38.50    1.80
 -10   1  -3   30.80    2.50
 -11  -1  -3    5.20    0.60
  11  -1   3    3.10    0.60
 -11  -1  -3    4.70    0.60
 -11  -1  -3    4.90    0.40
 -11  -1  -3    4.60    0.40
 -11   1  -3    4.80    0.60
 -11   1  -3    5.40    0.60
  11   1   3    4.90    0.50
 -12  -2   3   12.10    0.70
 -12  -2   3   12.30    0.60
  12  -2  -3   11.90    0.80
 -12  -2   3   11.50    0.90
 -12  -2   3   12.00    0.90
 -12   2   3   13.90    1.10
  12   2  -3   12.60    0.60
  12   2  -3   13.30    0.90
 -12   2   3   14.20    1.10
 -12   2   3   13.60    0.70
  12   2  -3   13.10    0.90
  11  -2  -3   25.30    2.40
 -11  -2   3   21.50    1.50
 -11  -2   3   23.30    1.10
 -11  -2   3   21.60    1.40
  11  -2  -3   22.10    1.20
 -11  -2   3   22.70    1.10
 -11   2   3   22.00    1.30
  11   2  -3   22.10    1.20
  11   2  -3   25.00    1.20
 -11   2   3   22.60    1.30
  11   2  -3   23.70    1.30
 -11   2   3   25.10    2.20
  11   2  -3   23.10    1.30
  11   2  -3   23.50    1.00
 -11   2   3   24.10    1.20
 -10  -2   3   56.19    2.30
 -10  -2   3   57.09    2.30
  10  -2  -3   53.59    2.40
 -10  -2   3   52.99    2.80
  10   2  -3   59.59    2.30
  10   2  -3   60.49    2.60
 -10   2   3   58.19    2.10
 -10   2   3   56.09    2.50
 -10   2   3   58.49    2.50
 -10   2   3   58.69    3.10
  10   2  -3   60.59    2.40
  10   2  -3   61.09    2.50
 -10   2   3   56.99    2.60
  10   2  -3   60.99    2.40
   9  -2  -3   16.90    1.20
  -9  -2   3   18.30    1.10
   9  -2  -3   18.70    1.70
  -9  -2   3   20.30    1.30
  -9  -2   3   18.00    1.10
  -9  -2   3   16.80    1.60
  -9   2   3   19.40    1.20
   9   2  -3   18.40    0.90
  -9   2   3   -1.30   12.30
  -9   2   3   19.40    0.80
   9   2  -3   19.90    1.10
   9   2  -3   18.60    1.20
   9   2  -3   19.20    1.20
  -9   2   3   17.90    1.60
   9   2  -3   20.10    1.10
  -8  -2   3  109.69    5.00
  -8  -2   3  109.39    6.30
   8  -2  -3  106.19    6.00
   8  -2  -3  113.59    5.00
  -8   2   3  101.49    5.70
  -8   2   3  112.49    5.60
   8   2  -3  118.09    4.20
   8   2  -3  114.29    4.20
  -8   2   3  129.79    5.60
   8   2  -3  114.69    5.70
  -8   2   3  115.59    4.10
  -8   2   3  116.29    4.20
   8   2  -3  107.09    5.60
  -8   2   3  102.69    5.40
   8   2  -3  113.59    4.30
   7  -2  -3   19.70    2.70
  -7  -2   3   19.90    1.20
  -7   2   3   19.90    2.20
   7   2  -3   19.00    2.10
  -7   2   3   19.00    1.50
   7   2  -3   19.50    1.10
  -7   2   3   20.60    0.90
  -7   2   3   19.90    1.00
   7   2  -3   19.60    1.00
   7   2  -3   25.00    3.00
  -7   2   3   21.50    2.00
  -7   2   3   18.70    2.90
  -6  -2   3   65.79    3.80
   6  -2  -3   65.49    3.60
  -6  -2   3   63.19    2.60
  -6  -2   3   60.19    2.90
  -6  -2   3   60.29    2.70
  -6   2   3   61.39    3.00
  -6   2   3   63.79    3.30
  -6   2   3   65.49    3.40
   6   2  -3   62.39    2.50
   6   2  -3   61.89    3.20
  -6   2   3   70.79    2.40
  -6   2   3   63.79    3.30
   6   2  -3   61.99    3.20
  -6   2   3   63.99    2.50
   5  -2  -3   73.59    3.70
  -5  -2   3   73.19    2.90
  -5  -2   3   73.69    3.10
  -5  -2   3   72.59    3.90
   5   2  -3   70.59    2.70
   5   2  -3   68.49    3.30
  -5   2   3   73.29    3.30
   5   2  -3   71.09    2.60
   5   2  -3   69.19    3.20
  -5   2   3   73.69    3.50
  -5   2   3   72.59    3.40
  -5   2   3   74.09    2.60
  -4  -2   3 2260.77   76.29
   4  -2  -3 2283.67   76.49
   4  -2  -3 2302.97   76.89
   4   2  -3 2101.29   71.49
  -4   2   3 2183.78   72.09
   4   2  -3 2148.89   71.99
  -4   2   3 2133.89   71.49
   4   2  -3 2139.79   72.09
  -4   2   3 2213.18   72.39
  -3  -2   3  212.68    8.10
   3  -2  -3  207.18    7.80
   3  -2  -3  216.58    8.10
  -3  -2   3  208.48    7.60
  -3   2   3  202.28    7.30
  -3   2   3  199.28    7.60
   3   2  -3  210.38    7.40
   3   2  -3  198.08    7.20
   3   2  -3  211.38    7.50
  -3   2   3  207.38    7.60
   2  -2  -3  456.75   16.00
   2  -2  -3  440.56   15.60
   2  -2  -3  442.76   15.30
  -2  -2   3  438.06   15.80
  -2  -2   3  456.75   15.40
   2   2  -3  448.86   15.20
  -2   2   3  435.36   15.30
   2   2  -3  436.56   15.00
   1  -2  -3  162.28    6.50
   1  -2  -3  153.68    5.80
  -1  -2   3  149.39    6.10
  -1  -2   3  163.28    5.70
   1   2  -3  145.09    5.30
   1   2  -3  152.58    5.50
  -1   2   3  143.49    5.40
  -1   2   3  149.19    5.60
   1   2  -3  165.18    5.90
   0  -2   3  946.81   32.80
   0  -2  -3  976.90   32.90
   0  -2   3  988.90   33.20
   0  -2  -3  976.00   33.60
   0   2  -3  970.50   32.20
   0   2   3  922.91   32.00
   0   2  -3  978.20   32.60
   0   2   3  936.41   31.80
   0   2   3  965.10   32.10
  -1  -2  -3   49.50    2.20
   1  -2   3   42.40    2.30
  -1  -2  -3   39.80    2.60
  -1   2  -3   41.50    2.20
  -1   2  -3   41.60    1.90
   1   2   3   39.90    1.70
   1   2   3   43.30    2.20
   2   2   3  566.24   19.60
  -2   2  -3  583.54   20.40
   2   2   3  583.14   20.30
  -2   2  -3  593.94   20.70
  -2   2  -3  573.14   19.50
  -2   2  -3  591.34   20.00
  -3  -2  -3  142.29    5.30
  -3  -2  -3  144.39    6.60
  -3  -2  -3  153.48    5.90
   3  -2   3  142.49    5.50
   3   2   3  144.89    5.20
   3   2   3  142.79    5.10
  -3   2  -3  148.79    6.10
  -3   2  -3  147.49    6.40
  -3   2  -3  150.28    5.20
  -3   2  -3  149.39    5.30
  -3   2  -3  152.08    5.70
   3   2   3  149.49    6.00
  -4  -2  -3   57.69    3.10
   4  -2   3   59.79    2.70
  -4  -2  -3   57.49    2.50
  -4  -2  -3   55.99    3.70
  -4   2  -3   61.59    3.10
  -4   2  -3   59.39    3.30
   4   2   3   59.29    2.30
  -4   2  -3   60.79    3.00
   4   2   3   60.49    2.30
  -4   2  -3   60.69    2.30
  -4   2  -3   62.79    3.60
  -4   2  -3   59.59    2.40
   4   2   3   63.59    3.50
   4   2   3   58.79    3.20
  -5  -2  -3    0.80    1.40
   5  -2   3    0.20    0.20
   5  -2   3    0.20    0.20
  -5  -2  -3    0.50    0.20
  -5  -2  -3    0.20    1.50
   5  -2   3    0.20    1.80
   5   2   3    2.00    0.80
   5   2   3    0.30    1.00
   5   2   3    4.30    1.70
  -5   2  -3    0.00    1.00
  -5   2  -3    0.30    1.10
   5   2   3   18.80   10.00
  -5   2  -3    0.20    1.10
  -5   2  -3    2.20    1.70
  -5   2  -3    0.80    0.70
   6  -2   3  101.49    4.40
  -6  -2  -3  107.69    6.10
  -6  -2  -3  107.89    4.30
   6  -2   3  106.79    4.90
  -6  -2  -3  103.89    6.20
  -6   2  -3  111.19    5.00
  -6   2  -3  108.69    4.00
  -6   2  -3  109.19    4.10
  -6   2  -3  121.39    6.60
  -6   2  -3  104.79    5.60
   6   2   3  110.89    5.50
   6   2   3  113.59    4.10
  -6   2  -3   93.79    6.30
   6   2   3  109.69    4.20
   6   2   3  110.89    4.10
   6   2   3  108.59    5.70
  -7  -2  -3  196.48    7.10
   7  -2   3  194.18    8.50
  -7  -2  -3  212.18    7.40
  -7  -2  -3  200.08    7.20
  -7  -2  -3  208.08    7.30
   7  -2   3  199.88    7.80
   7  -2   3  190.58    7.20
  -7  -2  -3  177.28    7.30
   7   2   3  207.58    7.40
  -7   2  -3  208.58    7.60
   7   2   3  211.38    7.50
  -7   2  -3  201.98    7.20
  -7   2  -3  202.88    8.30
   7   2   3  209.68    7.30
  -7   2  -3  209.18    7.10
   7   2   3  204.38    7.60
   7   2   3  203.78    7.20
  -8  -2  -3  143.69    5.70
   8  -2   3  129.09    5.10
  -8  -2  -3  132.59    5.10
  -8  -2  -3  136.19    5.00
  -8  -2  -3  132.79    5.00
  -8   2  -3  142.99    5.40
   8   2   3  140.69    5.00
  -8   2  -3  137.69    5.40
  -8   2  -3  141.29    6.10
   8   2   3  138.09    5.40
  -8   2  -3  135.59    5.50
   8   2   3  158.48    5.80
   8   2   3  142.99    5.20
   8   2   3  141.79    5.20
  -8   2  -3  138.79    4.90
  -9  -2  -3   13.80    1.30
  -9  -2  -3   15.10    1.70
  -9   2  -3   13.80    1.40
   9   2   3   15.50    0.90
   9   2   3   15.20    0.80
   9   2   3   14.60    1.30
  -9   2  -3   14.30    1.00
   9   2   3   14.20    0.90
  -9   2  -3   15.10    1.00
 -10  -2  -3   72.19    2.80
 -10  -2  -3   67.39    2.70
 -10  -2  -3   69.79    2.90
 -10  -2  -3   66.99    2.80
 -10  -2  -3   62.49    3.70
  10  -2   3   82.29    3.30
  10   2   3   70.39    2.80
  10   2   3   77.29    2.80
 -10   2  -3   76.49    2.80
 -10   2  -3   72.79    2.90
 -10   2  -3   70.79    2.80
  10   2   3   83.19    3.10
 -12  -3   3    1.30    0.40
 -12  -3   3    1.10    0.40
  12  -3  -3    1.30    0.30
  12  -3  -3    2.50    1.60
  12   3  -3    0.80    0.20
  12   3  -3    1.30    0.30
 -12   3   3    0.60    0.20
  11  -3  -3   42.50    2.30
  11  -3  -3   43.30    2.70
 -11  -3   3   44.90    2.10
 -11  -3   3   45.00    2.20
  11  -3  -3   45.80    1.90
  11   3  -3   49.70    2.00
  11   3  -3   48.80    2.10
  11   3  -3   50.89    1.90
  11   3  -3   48.30    2.30
 -11   3   3   49.50    2.00
  10  -3  -3  166.58    6.00
 -10  -3   3  165.38    5.90
  10  -3  -3  155.38    6.40
 -10  -3   3  169.98    6.40
 -10  -3   3  162.78    5.80
  10  -3  -3  161.58    6.70
 -10  -3   3  167.98    5.90
 -10  -3   3  172.48    6.70
 -10   3   3  181.88    6.40
  10   3  -3  182.28    6.20
  10   3  -3  180.88    6.40
 -10   3   3  176.38    6.10
  10   3  -3  182.38    6.30
 -10   3   3  158.38    7.90
  10   3  -3  188.28    6.40
  -9  -3   3   66.49    3.60
  -9  -3   3   71.89    3.40
   9  -3  -3   63.49    2.90
  -9  -3   3   66.19    2.60
  -9  -3   3   67.19    2.70
  -9  -3   3   69.19    2.60
   9  -3  -3   74.19    3.60
   9  -3  -3   67.59    3.40
   9   3  -3   75.59    3.10
  -9   3   3   82.09    3.20
  -9   3   3   80.39    4.00
   9   3  -3   87.39    3.60
   9   3  -3   78.19    3.00
  -9   3   3   75.19    2.80
   9   3  -3   74.39    3.20
  -9   3   3   75.99    3.30
   9   3  -3   73.79    2.90
  -9   3   3   75.19    2.90
  -9   3   3   76.89    2.90
  -8  -3   3   29.20    1.70
  -8  -3   3   31.00    2.00
  -8  -3   3   30.30    1.40
  -8  -3   3   28.90    1.50
  -8  -3   3   31.30    2.10
   8  -3  -3   31.40    2.20
   8  -3  -3   30.30    2.20
   8  -3  -3   31.20    1.60
  -8  -3   3   31.20    1.40
  -8   3   3   32.70    1.70
   8   3  -3   30.60    1.70
   8   3  -3   33.80    1.50
  -8   3   3   31.80    1.50
   8   3  -3   33.50    1.50
   8   3  -3   33.40    1.60
  -8   3   3   32.40    1.40
  -8   3   3   33.50    1.40
   8   3  -3   31.60    1.40
  -8   3   3   32.80    1.30
  -8   3   3   33.20    2.40
  -7  -3   3  162.18    8.50
   7  -3  -3  169.58    6.90
  -7   3   3  154.78    9.70
   7   3  -3  181.18    6.30
  -7   3   3  176.88    6.20
  -7   3   3  180.58    7.90
  -7   3   3  176.18    6.20
  -7   3   3  177.08    6.10
   7   3  -3  175.28    6.20
  -7   3   3  167.78    7.50
   7   3  -3  170.68    7.60
   7   3  -3  182.78    6.20
  -6  -3   3  203.08   10.00
   6  -3  -3  214.18    8.20
  -6  -3   3  208.58    8.00
  -6   3   3  220.08    8.90
   6   3  -3  218.68    7.60
  -6   3   3  219.28    7.60
  -6   3   3  215.58    7.50
   6   3  -3  215.28    9.20
  -6   3   3  224.78    9.40
  -6   3   3  220.58    7.50
  -6   3   3  205.58    9.50
   6   3  -3  221.18    7.50
   6   3  -3  204.68    7.50
   5  -3  -3  166.98    6.70
  -5  -3   3  177.68    7.80
  -5  -3   3  160.28    6.50
  -5   3   3  174.48    7.20
  -5   3   3  177.78    6.00
  -5   3   3  173.48    6.10
  -5   3   3  176.18    7.00
   5   3  -3  171.48    6.10
   5   3  -3  182.48    7.20
   5   3  -3  171.38    7.00
   5   3  -3  167.48    6.10
  -4  -3   3  424.96   14.80
  -4  -3   3  401.56   14.30
  -4  -3   3  426.66   15.80
   4   3  -3  410.86   14.70
   4   3  -3  393.16   13.90
  -4   3   3  413.86   13.90
   4   3  -3  413.06   13.90
  -4   3   3  403.86   14.50
  -4   3   3  419.96   15.00
  -4   3   3  412.46   14.00
   4   3  -3  422.46   14.80
  -4   3   3  425.96   15.10
  -3   3   3  143.99    5.10
   3   3  -3  149.49    5.80
   3   3  -3  145.29    5.00
  -3   3   3  139.99    6.10
  -3   3   3  153.88    5.00
   3   3  -3  145.79    5.60
  -3   3   3  147.79    6.00
  -2  -3   3  108.39    5.10
   2  -3  -3  113.29    5.20
  -2  -3   3  109.49    4.40
   2   3  -3  114.09    4.40
  -2   3   3  107.49    4.50
   2   3  -3  111.99    4.20
  -2   3   3  104.29    3.70
  -2   3   3  108.39    4.60
   1  -3  -3  370.16   13.40
  -1  -3   3  373.46   13.90
   1  -3  -3  379.46   15.10
  -1  -3   3  386.46   13.20
  -1   3   3  378.86   13.10
   1   3  -3  386.86   13.50
  -1   3   3  337.97   12.90
   0  -3  -3   10.50    1.60
   0  -3   3   11.10    1.40
   0  -3  -3   10.60    1.20
   0   3  -3   14.10    1.10
   0   3  -3   12.90    1.40
   0   3   3   11.10    1.00
   0   3  -3   12.50    0.60
   1  -3   3  155.38    6.20
   1  -3   3  171.88    6.90
  -1  -3  -3  165.78    7.50
  -1  -3  -3  177.88    6.70
   1   3   3  163.88    6.10
  -1   3  -3  172.88    7.00
   1   3   3  166.28    5.80
  -1   3  -3  173.58    5.90
  -1   3  -3  181.18    7.50
   1   3   3  169.68    6.90
  -1   3  -3  173.58    6.00
  -1   3  -3  171.38    6.40
   2  -3   3   17.60    1.30
   2  -3   3   18.90    1.60
  -2  -3  -3   16.50    2.10
   2  -3   3   17.30    1.10
  -2  -3  -3   20.70    1.80
  -2   3  -3   19.30    1.50
  -2   3  -3   18.80    1.00
   2   3   3   19.80    0.80
  -2   3  -3   20.10    0.90
  -2   3  -3   18.30    2.00
   2   3   3   18.70    1.70
  -2   3  -3   18.20    1.80
   2   3   3   18.50    0.80
   3  -3   3   28.60    1.60
   3  -3   3   29.40    1.90
  -3  -3  -3   20.90    3.80
  -3  -3  -3   31.20    2.50
   3   3   3   31.00    1.30
   3   3   3   32.60    2.60
  -3   3  -3   28.50    2.00
  -3   3  -3   30.80    1.40
   3   3   3   32.60    1.30
  -3   3  -3   34.00    3.30
  -3   3  -3   35.70    3.60
  -3   3  -3   29.80    1.30
  -4  -3  -3   59.99    5.00
   4  -3   3   61.79    2.80
  -4   3  -3   67.59    2.50
   4   3   3   64.99    2.40
  -4   3  -3   65.29    2.70
  -4   3  -3   55.09    5.20
   4   3   3   62.99    2.50
  -4   3  -3   66.39    2.60
  -4   3  -3   61.89    3.50
   4   3   3   74.49    4.80
   5  -3   3  241.88    9.20
  -5  -3  -3  247.38   10.00
  -5  -3  -3  246.68   11.40
  -5   3  -3  243.88   11.00
   5   3   3  263.87   10.50
  -5   3  -3  258.47    9.00
  -5   3  -3  262.27    9.10
  -5   3  -3  266.17    9.10
  -5   3  -3  254.87   10.60
   5   3   3  265.67   10.80
   5   3   3  261.27    9.00
   5   3   3  254.17    8.90
  -5   3  -3  251.87   10.90
  -5   3  -3  244.98   10.10
   6  -3   3  142.59    6.60
  -6  -3  -3  145.29    5.60
   6  -3   3  151.68    5.90
  -6  -3  -3  148.99    5.40
  -6  -3  -3  138.89    5.50
  -6  -3  -3  155.28    6.20
  -6  -3  -3  147.09    5.60
  -6  -3  -3  135.29    5.60
   6  -3   3  141.09    5.50
   6   3   3  157.28    5.70
   6   3   3  163.98    5.70
   6   3   3  162.28    5.80
  -6   3  -3  157.58    6.00
  -6   3  -3  158.98    5.50
  -6   3  -3  155.08    5.80
  -6   3  -3  160.58    5.70
  -6   3  -3  150.98    6.70
  -6   3  -3  154.78    5.70
  -7  -3  -3  302.07   11.20
   7  -3   3  261.07   13.50
   7  -3   3  323.67   10.90
  -7   3  -3  377.16   12.60
   7   3   3  362.36   12.60
   7   3   3  367.56   12.50
   7   3   3  378.16   12.70
  -7   3  -3  357.66   12.40
  -7   3  -3  359.06   12.60
  -7   3  -3  337.97   13.50
   8  -3   3   66.99    3.10
  -8  -3  -3   71.19    2.80
   8  -3   3   67.49    2.80
   8  -3   3   58.79    4.90
  -8  -3  -3   69.79    3.30
  -8  -3  -3   65.69    3.30
   8   3   3   74.59    3.00
  -8   3  -3   73.09    2.60
   8   3   3   76.89    2.90
  -8   3  -3   69.49    3.60
   8   3   3   74.69    3.00
   8   3   3   75.59    3.10
   8   3   3   74.59    2.70
  -8   3  -3   63.19    2.70
  -8   3  -3   76.89    3.10
  -9  -3  -3    0.00    0.40
  -9  -3  -3    0.00    0.10
  -9  -3  -3   -0.20    0.10
   9  -3   3    0.20    0.20
   9   3   3   21.10   15.20
  10  -3   3    6.70    0.50
  10  -3   3    5.80    0.70
 -10  -3  -3    5.50    0.70
 -10  -3  -3    7.00    0.50
 -10  -3  -3    6.10    0.80
 -10   3  -3    7.90    0.50
  10   3   3    7.30    0.60
  10   3   3    8.10    0.80
  10   3   3    7.80    0.40
 -11  -4   3   50.69    2.30
  11  -4  -3   44.50    2.40
  11  -4  -3   44.00    1.80
 -11  -4   3   46.00    2.00
  11   4  -3   50.59    2.00
 -11   4   3   53.09    2.00
  11   4  -3   51.29    1.90
  10  -4  -3    4.70    0.90
 -10  -4   3    4.70    0.50
  10  -4  -3    3.00    0.90
  10  -4  -3    4.90    0.50
 -10  -4   3    3.80    0.80
 -10  -4   3    5.40    0.70
 -10   4   3    4.90    0.60
  10   4  -3    5.00    0.60
  10   4  -3    6.50    0.40
  10   4  -3    5.60    0.50
  10   4  -3    5.60    0.50
 -10   4   3    5.70    0.30
 -10   4   3    5.90    0.50
  10   4  -3    6.30    0.60
   9  -4  -3   35.80    2.80
   9  -4  -3   41.70    2.20
  -9  -4   3   34.80    1.60
  -9  -4   3   36.50    2.10
  -9  -4   3   41.80    3.00
   9  -4  -3   39.00    2.30
   9  -4  -3   35.30    2.10
   9   4  -3   39.10    1.80
  -9   4   3   40.70    1.50
  -9   4   3   46.90    2.20
   9   4  -3   40.80    1.70
  -9   4   3   39.80    1.70
   9   4  -3   38.90    1.60
  -9   4   3   41.40    1.70
   9   4  -3   41.00    1.70
   9   4  -3   39.60    1.80
  -9   4   3   39.40    1.80
  -8  -4   3   58.19    2.40
   8  -4  -3   57.19    3.00
   8  -4  -3   57.29    2.40
  -8  -4   3   57.79    2.40
  -8  -4   3   55.59    2.80
   8  -4  -3   55.69    3.70
  -8  -4   3   55.99    3.00
   8  -4  -3   62.89    3.70
   8  -4  -3   51.99    2.90
  -8   4   3   64.69    2.50
  -8   4   3   63.89    2.60
  -8   4   3   62.99    2.70
   8   4  -3   67.69    2.70
   8   4  -3   65.29    2.50
   8   4  -3   61.39    2.40
   8   4  -3   64.19    2.60
  -8   4   3   63.49    2.40
  -8   4   3   66.09    2.50
   7  -4  -3   94.39    4.40
  -7  -4   3   95.99    4.10
   7  -4  -3   93.69    3.70
  -7  -4   3   96.49    4.40
   7  -4  -3  100.49    4.60
   7  -4  -3  101.39    4.60
   7  -4  -3  100.39    5.30
  -7  -4   3   96.29    3.80
  -7  -4   3   97.39    3.80
  -7  -4   3   97.19    4.20
  -7  -4   3   92.39    3.80
  -7   4   3  111.19    4.00
  -7   4   3  110.99    4.10
   7   4  -3  112.99    4.00
  -7   4   3  104.39    4.20
   7   4  -3  112.29    4.10
  -7   4   3  106.89    3.90
  -7   4   3  108.89    4.00
   7   4  -3  106.89    4.00
   6  -4  -3  110.69    5.10
  -6  -4   3   93.79    4.30
   6  -4  -3   89.39    3.90
   6  -4  -3   91.89    4.40
  -6  -4   3   93.69    4.00
  -6  -4   3   94.09    3.80
   6  -4  -3   95.59    4.70
  -6   4   3  103.79    3.90
   6   4  -3  106.39    4.20
   6   4  -3  112.09    4.30
  -6   4   3  104.99    4.20
  -6   4   3  108.99    3.90
   6   4  -3  110.99    3.90
  -6   4   3  108.99    4.00
  -6   4   3  110.79    4.00
   5  -4  -3  163.68    6.60
  -5  -4   3  154.58    6.70
  -5  -4   3  156.08    8.10
  -5   4   3  170.68    5.90
   5   4  -3  169.38    5.90
  -5   4   3  173.08    6.00
  -5   4   3  169.08    5.90
  -5   4   3  157.98    8.40
   5   4  -3  168.68    7.30
   5   4  -3  158.38    7.10
  -5   4   3  169.48    7.60
   5   4  -3  172.38    5.80
  -4  -4   3  129.59    6.60
   4  -4  -3  110.29    5.60
  -4  -4   3  118.69    5.20
  -4   4   3  129.19    6.00
  -4   4   3  132.29    4.50
   4   4  -3  119.29    5.60
  -4   4   3  131.19    5.00
  -4   4   3  126.19    5.90
   4   4  -3  128.99    4.50
  -4   4   3  131.69    4.60
  -3  -4   3  222.98    9.60
  -3  -4   3  210.08    7.70
   3  -4  -3  209.48    8.20
  -3  -4   3  221.48    8.30
   3   4  -3  230.58    7.90
   3   4  -3  232.08    8.80
   3   4  -3  224.48    9.40
  -3   4   3  225.58    7.90
  -3   4   3  232.88    7.80
  -3   4   3  235.18    9.20
   3   4  -3  236.48    7.90
  -3   4   3  219.78    9.00
  -2   4   3  906.21   31.70
   2   4  -3  947.41   33.40
  -2   4   3  978.00   33.00
   2   4  -3  938.51   31.70
  -2   4   3  984.50   31.90
   2   4  -3  952.60   33.70
   1  -4  -3  203.58    7.80
  -1  -4   3  192.68    7.30
  -1  -4   3  198.08    7.60
   1  -4  -3  201.28    8.90
  -1  -4   3  200.58    8.50
  -1   4   3  196.98    7.80
   1   4  -3  212.58    9.90
   1   4  -3  207.78    6.90
  -1   4   3  199.98    6.80
  -1   4   3  195.38    6.90
   1   4  -3  203.18    7.70
   1   4  -3  194.68   10.40
   1   4  -3  204.68    6.90
   0  -4  -3  199.98    7.90
   0  -4   3  193.78    8.30
   0  -4  -3  198.38    9.00
   0  -4   3  187.58    7.20
   0   4   3  185.98    9.20
   0   4   3  202.18    7.30
   0   4  -3  201.18    7.10
   0   4   3  206.48    8.80
   0   4   3  195.28    6.80
   0   4  -3  206.58    8.90
   0   4  -3  204.18    7.00
   0   4  -3  201.18    7.60
   0   4  -3  212.38    8.50
   1  -4   3  150.18    6.90
  -1  -4  -3  162.68    6.80
   1  -4   3  162.98    6.40
  -1  -4  -3  154.48    7.80
  -1   4  -3  163.88    5.60
  -1   4  -3  164.98    5.70
   1   4   3  159.88    6.90
   1   4   3  153.88    5.50
   1   4   3  158.08    5.90
  -1   4  -3  161.58    7.10
  -1   4  -3  164.38    7.60
  -1   4  -3  159.18    6.30
  -2  -4  -3  445.26   18.10
   2  -4   3  450.65   16.10
  -2  -4  -3  469.65   16.90
  -2   4  -3  489.45   17.60
  -2   4  -3  493.15   16.30
   2   4   3  488.65   18.40
  -2   4  -3  464.15   18.10
  -2   4  -3  464.95   16.40
  -2   4  -3  494.65   16.50
   2   4   3  490.85   18.80
  -2   4  -3  487.55   18.60
   2   4   3  478.05   16.20
   2   4   3  483.55   16.20
  -3  -4  -3  272.97   11.00
   3  -4   3  279.27   10.20
  -3  -4  -3  271.27   12.20
  -3   4  -3  291.37   12.90
  -3   4  -3  314.37   10.80
  -3   4  -3  306.47   10.70
  -3   4  -3  298.47   12.90
   3   4   3  309.47   10.60
   3   4   3  325.47   13.50
   3   4   3  312.57   10.50
  -3   4  -3  323.97   13.30
  -4  -4  -3  375.86   13.20
   4  -4   3  385.86   13.60
   4  -4   3  354.06   13.70
  -4  -4  -3  383.56   13.70
  -4  -4  -3  359.36   13.40
  -4  -4  -3  374.96   13.30
  -4  -4  -3  374.96   13.70
   4  -4   3  368.56   13.00
  -4  -4  -3  387.36   13.50
  -4  -4  -3  371.56   13.20
  -4  -4  -3  426.36   13.70
   4  -4   3  379.36   15.40
   4  -4   3  345.37   14.40
   4  -4   3  373.56   14.20
  -4   4  -3  415.26   14.40
  -4   4  -3  421.66   14.60
  -4   4  -3  433.26   14.50
  -4   4  -3  441.66   14.70
   4   4   3  424.66   14.30
   4   4   3  425.06   14.60
  -4   4  -3  403.56   14.80
   5  -4   3  137.89    7.20
  -5  -4  -3  137.59    5.40
  -5  -4  -3  143.99    5.90
  -5  -4  -3  146.19    5.30
   5  -4   3  129.79    6.10
  -5  -4  -3  134.59    5.60
   5  -4   3  139.39    5.10
  -5  -4  -3  139.59    5.50
   5  -4   3  133.19    5.50
  -5  -4  -3  136.19    5.30
  -5  -4  -3  138.49    5.40
   5  -4   3  142.59    5.70
   5   4   3  153.48    5.60
  -5   4  -3  158.88    5.60
  -5   4  -3  161.38    5.60
  -5   4  -3  149.99    5.50
   5   4   3  157.18    5.50
   5   4   3  153.68    5.60
  -5   4  -3  148.49    5.80
  -5   4  -3  157.38    5.70
   6  -4   3  123.99    6.50
  -6  -4  -3  123.59    4.90
  -6  -4  -3  115.99    4.90
   6  -4   3  115.99    5.60
   6  -4   3  123.69    4.60
  -6  -4  -3  125.09    4.80
  -6  -4  -3  126.19    4.70
  -6  -4  -3  126.29    5.30
  -6  -4  -3  121.29    4.80
   6  -4   3  129.69    5.20
  -6   4  -3  136.09    5.30
   6   4   3  137.19    5.10
  -6   4  -3  137.09    5.10
   6   4   3  141.59    5.10
   6   4   3  147.09    5.70
  -6   4  -3  137.19    5.00
  -6   4  -3  140.89    5.10
  -6   4  -3  150.18    5.50
   7  -4   3   13.60    1.50
  -7  -4  -3   13.80    1.00
   7  -4   3   13.10    0.90
  -7  -4  -3   12.20    1.30
  -7  -4  -3   14.90    1.00
   7  -4   3   13.40    1.30
   7  -4   3   15.40    2.30
  -7  -4  -3   12.60    1.40
  -7   4  -3   15.50    1.00
  -7   4  -3   15.80    0.80
  -7   4  -3   15.50    0.90
   7   4   3   15.00    1.00
   7   4   3   15.40    1.00
  -7   4  -3   16.30    0.90
   7   4   3   15.40    0.80
  -7   4  -3   15.50    1.00
  -8  -4  -3   60.59    2.40
   8  -4   3   59.39    2.70
   8  -4   3   57.99    3.90
  -8  -4  -3   59.59    3.00
  -8  -4  -3   59.29    2.70
   8  -4   3   58.69    3.00
  -8  -4  -3   59.49    2.40
   8  -4   3   61.29    2.40
   8   4   3   69.59    2.70
  -8   4  -3   67.49    2.70
  -8   4  -3   68.19    2.50
   8   4   3   69.29    2.50
  -8   4  -3   66.49    2.60
   8   4   3   70.99    2.60
   8   4   3   61.19    3.00
  -8   4  -3   69.79    2.40
   8   4   3   60.39    3.00
  -9  -4  -3   26.30    1.50
   9  -4   3   26.70    1.50
  -9  -4  -3   26.60    1.20
   9  -4   3   26.50    1.10
  -9   4  -3   29.50    1.20
   9   4   3   30.00    1.20
   9   4   3   35.20    1.50
  -9   4  -3   30.10    1.30
   9  -5  -3    5.50    1.30
  -9  -5   3    5.80    0.50
  -9  -5   3    5.90    0.40
   9  -5  -3    5.00    0.70
  -9   5   3    8.70    0.60
   9   5  -3    8.50    0.60
   9   5  -3    7.00    0.40
  -9   5   3    8.20    0.60
  -9   5   3    7.80    0.60
   8  -5  -3   21.90    2.00
   8  -5  -3   23.10    1.50
  -8  -5   3   20.50    1.10
   8  -5  -3   26.60    2.30
  -8  -5   3   22.00    1.50
  -8  -5   3   23.00    1.40
  -8  -5   3   20.90    1.00
  -8  -5   3   20.90    1.10
  -8   5   3   24.00    1.20
  -8   5   3   24.30    1.10
  -8   5   3   24.90    1.10
   8   5  -3   22.90    1.10
   8   5  -3   24.00    1.10
  -8   5   3   24.30    1.00
  -8   5   3   24.60    1.20
   8   5  -3   23.90    1.20
   7  -5  -3   72.09    4.20
   7  -5  -3   77.99    3.70
  -7  -5   3   77.29    3.40
   7  -5  -3   70.19    3.50
  -7  -5   3   69.49    3.60
  -7  -5   3   79.29    3.00
  -7  -5   3   80.59    3.00
   7  -5  -3   67.39    3.70
  -7  -5   3   73.99    2.90
  -7  -5   3   75.79    3.50
  -7   5   3   87.29    3.10
   7   5  -3   83.79    3.40
   7   5  -3   84.99    3.20
   7   5  -3   85.39    3.20
  -7   5   3   88.19    3.30
  -7   5   3   86.39    3.20
  -7   5   3   87.89    3.20
  -6  -5   3  120.69    5.00
   6  -5  -3  119.39    5.30
  -6  -5   3  125.29    4.70
  -6  -5   3  123.09    4.70
   6  -5  -3  122.19    6.20
   6  -5  -3  141.29    5.10
   6  -5  -3  124.69    5.40
   6  -5  -3  146.59    7.40
  -6  -5   3  120.39    4.70
  -6  -5   3  128.39    5.40
  -6  -5   3  130.49    4.90
  -6  -5   3  120.99    5.10
   6   5  -3  136.99    4.80
  -6   5   3  128.29    4.90
   6   5  -3  137.69    4.90
  -6   5   3  135.69    4.80
  -6   5   3  141.09    4.90
  -6   5   3  135.29    4.90
  -6   5   3  133.49    4.70
   5  -5  -3  107.59    4.80
   5  -5  -3  116.99    4.50
   5  -5  -3  104.39    5.50
   5  -5  -3  101.69    5.10
  -5  -5   3  104.39    4.10
  -5  -5   3  107.69    4.30
  -5  -5   3  104.49    4.40
   5  -5  -3  100.49    4.70
  -5  -5   3  102.79    4.00
  -5  -5   3  107.79    4.10
  -5  -5   3  104.89    4.50
   5  -5  -3  102.09    4.70
   5  -5  -3  109.89    4.80
  -5  -5   3  108.09    4.70
  -5   5   3  121.29    4.30
  -5   5   3  120.49    4.30
   5   5  -3  113.79    4.20
  -5   5   3  116.89    4.30
   5   5  -3  115.19    4.20
  -4  -5   3   62.09    2.50
   4  -5  -3   56.49    2.90
  -4  -5   3   57.99    2.60
  -4  -5   3   48.80    2.70
   4  -5  -3   57.49    3.60
   4  -5  -3   59.99    3.10
  -4  -5   3   57.69    2.50
   4  -5  -3   56.19    3.00
  -4  -5   3   57.29    2.90
  -4  -5   3   57.29    2.80
  -4  -5   3   54.99    3.30
  -4  -5   3   56.69    2.40
  -4  -5   3   58.09    2.50
  -4  -5   3   49.10    3.00
  -4  -5   3   56.49    2.40
  -4  -5   3   56.49    2.80
   4  -5  -3   60.39    2.80
   4  -5  -3   53.59    3.40
  -4   5   3   62.79    2.40
  -4   5   3   62.19    2.40
   4   5  -3   61.59    2.40
   4   5  -3   61.19    2.30
  -4   5   3   65.29    2.40
  -3  -5   3   79.19    3.90
  -3  -5   3   83.59    3.40
   3  -5  -3   77.29    4.60
  -3  -5   3   78.29    3.60
   3  -5  -3   86.39    4.30
  -3  -5   3   88.39    4.80
  -3  -5   3   86.29    3.80
  -3  -5   3   93.59    3.90
   3  -5  -3   77.19    5.40
  -3  -5   3   93.99    4.20
   3  -5  -3   85.79    4.00
  -3  -5   3   80.19    3.70
  -3  -5   3   83.19    3.60
   3  -5  -3   87.49    4.10
  -3  -5   3   75.19    3.30
   3  -5  -3   81.29    4.50
  -3   5   3   90.99    3.30
  -3   5   3   90.39    3.30
   3   5  -3   91.99    3.20
  -2  -5   3  177.48    6.60
  -2  -5   3  173.58    6.90
  -2  -5   3  161.18    6.00
  -2  -5   3  170.18    6.20
  -2  -5   3  155.18    6.40
   2  -5  -3  171.78    7.00
   2  -5  -3  167.78    6.60
  -2  -5   3  154.68    7.30
   2  -5  -3  164.88    7.30
  -2  -5   3  159.98    7.40
   2  -5  -3  170.28    9.00
   2  -5  -3  151.98    7.60
  -2  -5   3  160.78    6.20
  -2  -5   3  167.38    7.20
   2  -5  -3  166.48    6.90
  -2  -5   3  179.88    6.70
   2  -5  -3  170.28    6.60
  -2  -5   3  165.58    6.20
  -2  -5   3  147.69    7.20
   2   5  -3  183.78    6.30
  -2   5   3  180.78    6.40
  -2   5   3  185.98    6.30
  -1  -5   3  359.76   12.70
   1  -5  -3  376.86   13.20
  -1  -5   3  341.57   13.70
  -1  -5   3  348.17   12.60
   1  -5  -3  362.66   13.00
   1  -5  -3  362.36   13.00
   1  -5  -3  359.86   13.60
   1  -5  -3  347.07   13.60
  -1  -5   3  364.26   12.80
  -1  -5   3  351.36   12.70
  -1  -5   3  358.66   12.40
  -1  -5   3  361.36   12.30
   1  -5  -3  359.26   13.00
   1  -5  -3  361.36   12.90
  -1  -5   3  342.27   12.80
  -1  -5   3  346.17   12.90
  -1  -5   3  361.36   13.60
   1  -5  -3  353.86   12.90
   1  -5  -3  374.16   12.50
  -1  -5   3  337.17   14.00
  -1   5   3  388.66   13.20
  -1   5   3  384.96   13.80
   1   5  -3  397.96   13.20
  -1   5   3  389.66   13.10
   1   5  -3  397.66   13.30
   0  -5  -3   90.39    4.20
   0  -5  -3   92.79    4.30
   0  -5   3   93.19    4.00
   0  -5  -3   87.99    4.20
   0  -5  -3   93.39    3.70
   0  -5  -3   95.69    4.70
   0  -5  -3   90.79    4.30
   0  -5   3   85.39    4.80
   0  -5   3   94.09    3.90
   0  -5   3   91.59    4.20
   0  -5  -3   94.09    3.60
   0  -5   3   85.89    5.10
   0  -5   3   91.99    5.30
   0  -5  -3   92.69    3.80
   0  -5   3   94.59    4.10
   0  -5  -3   78.49    4.60
   0  -5   3   92.69    3.90
   0  -5  -3   89.99    4.30
   0   5  -3  102.59    3.70
   0   5  -3  104.69    3.80
   0   5   3  100.99    3.50
   1  -5   3   28.60    2.80
   1  -5   3   32.50    1.90
  -1  -5  -3   30.70    1.90
  -1  -5  -3   30.90    2.20
  -1  -5  -3   35.20    2.80
  -1  -5  -3   35.60    2.20
  -1  -5  -3   34.00    2.20
  -1  -5  -3   29.30    2.10
   1  -5   3   27.80    2.60
   1  -5   3   31.20    3.30
  -1  -5  -3   31.60    2.40
  -1   5  -3   37.90    1.60
   1   5   3   37.10    1.40
  -1   5  -3   36.40    1.50
   2  -5   3   16.30    1.70
   2  -5   3   17.40    2.20
  -2  -5  -3   18.50    1.50
  -2  -5  -3   19.60    1.50
  -2  -5  -3   16.90    1.20
  -2  -5  -3   17.30    1.30
   2  -5   3   15.20    1.80
   2  -5   3   17.90    1.40
  -2  -5  -3   20.70    1.70
   2  -5   3   16.80    1.60
   2  -5   3   16.40    1.10
  -2  -5  -3   18.00    1.20
  -2  -5  -3   19.80    1.60
  -2  -5  -3   17.90    1.30
  -2  -5  -3   17.10    1.40
  -2  -5  -3   18.10    1.30
   2  -5   3   16.50    1.20
  -2  -5  -3   20.00    1.50
  -2   5  -3   19.80    1.10
  -2   5  -3   18.70    1.10
  -2   5  -3   21.30    1.00
   2   5   3   21.40    0.90
   3  -5   3    4.60    3.50
   3  -5   3    1.40    2.80
  -3  -5  -3    2.90    2.20
  -3  -5  -3    2.10    0.70
  -3  -5  -3    3.20    2.40
  -3  -5  -3    1.90    0.70
  -3  -5  -3    0.70    0.70
   3  -5   3    1.30    0.70
   3  -5   3    6.20    3.80
  -3  -5  -3    0.80    0.60
   3   5   3   39.00   14.50
  -3   5  -3   42.20   14.10
  -4  -5  -3    8.90    1.20
   4  -5   3    7.10    1.70
   4  -5   3    7.10    1.30
   4  -5   3    7.60    1.40
  -4  -5  -3    8.60    0.90
  -4  -5  -3    6.60    0.80
  -4  -5  -3    8.30    0.90
   4  -5   3    6.10    1.00
  -4  -5  -3    7.40    0.80
  -4  -5  -3    8.10    1.00
  -4  -5  -3    7.50    0.80
   4  -5   3    9.20    1.10
  -4   5  -3    9.50    0.60
  -4   5  -3    7.00    0.80
   4   5   3   10.20    0.70
  -4   5  -3   10.50    0.70
   4   5   3    9.10    0.60
  -4   5  -3    9.10    0.70
  -5  -5  -3   26.40    1.50
  -5  -5  -3   27.20    1.60
  -5  -5  -3   26.30    1.50
  -5  -5  -3   26.50    1.70
  -5  -5  -3   27.10    1.60
   5  -5   3   26.30    1.70
   5  -5   3   25.30    2.00
   5  -5   3   27.90    1.60
   5  -5   3   26.20    2.50
  -5  -5  -3   25.90    1.40
  -5   5  -3   29.90    1.40
   5   5   3   29.20    1.40
  -5   5  -3   28.00    1.50
  -5   5  -3   30.20    1.30
   5   5   3   28.60    1.40
  -5   5  -3   30.00    1.40
  -5   5  -3   29.20    1.20
   6  -5   3   18.80    1.30
  -6  -5  -3   16.90    1.30
  -6  -5  -3   16.40    1.10
  -6  -5  -3   16.50    1.10
  -6  -5  -3   16.20    1.10
  -6  -5  -3   17.30    1.00
   6  -5   3   16.30    1.50
  -6  -5  -3   15.90    1.00
   6  -5   3   16.70    1.80
   6   5   3   17.00    0.90
  -6   5  -3   19.10    1.00
   6   5   3   17.60    1.00
  -6   5  -3   17.90    1.10
  -6   5  -3   18.40    1.00
  -6   5  -3   18.20    0.80
  -6   5  -3   18.30    1.00
  -7  -5  -3    2.20    0.50
  -7  -5  -3    1.90    0.40
   7  -5   3    2.50    0.70
   7  -5   3    3.50    1.20
  -7  -5  -3    2.00    0.60
  -7  -5  -3    3.20    0.60
  -7  -5  -3    2.80    0.50
   7  -5   3    3.10    0.90
   7   5   3    3.90    0.40
  -7   5  -3    3.50    0.50
   7   5   3    2.60    0.30
  -7   5  -3    2.40    0.40
  -7   5  -3    3.30    0.30
   7   5   3    2.20    0.50
  -7   5  -3    3.00    0.30
  -8  -5  -3   46.80    1.80
  -8  -5  -3   47.90    1.80
   8  -5   3   46.30    2.20
  -8  -5  -3   47.30    1.90
   8   5   3   51.59    2.10
   8   5   3   51.69    2.00
  -8   5  -3   53.49    1.90
   8  -6  -3   23.20    1.50
  -8  -6   3   24.50    1.10
  -8  -6   3   23.60    1.00
  -8  -6   3   25.30    1.30
   8  -6  -3   22.50    1.30
  -8  -6   3   25.60    1.40
  -8   6   3   27.50    1.00
  -8   6   3   28.70    1.30
  -7  -6   3   40.50    2.00
  -7  -6   3   35.50    1.80
   7  -6  -3   35.40    2.90
  -7  -6   3   35.10    1.40
  -7  -6   3   35.00    1.60
   7  -6  -3   33.80    1.70
  -7  -6   3   38.60    1.70
  -7   6   3   39.10    1.50
  -7   6   3   36.90    1.50
  -7   6   3   39.30    1.40
   6  -6  -3   24.70    1.50
  -6  -6   3   25.80    1.20
  -6  -6   3   26.40    1.60
  -6  -6   3   24.40    1.40
  -6  -6   3   24.70    1.20
   6  -6  -3   24.10    2.00
   6  -6  -3   25.30    2.10
   6  -6  -3   23.60    1.70
  -6  -6   3   25.60    1.20
  -6  -6   3   24.30    1.40
   6  -6  -3   25.80    1.60
  -6   6   3   27.20    1.20
  -6   6   3   26.60    1.40
  -6   6   3   28.40    1.20
  -5  -6   3   88.29    3.50
   5  -6  -3   85.79    3.90
  -5  -6   3   85.09    3.20
  -5  -6   3   84.19    3.50
  -5  -6   3   83.99    3.70
   5  -6  -3   74.49    4.40
  -5  -6   3   82.49    3.20
   5  -6  -3   86.69    3.70
  -5  -6   3   87.39    3.20
   5  -6  -3   84.99    3.70
  -5   6   3   89.79    3.30
  -5   6   3   89.89    3.30
  -5   6   3   95.69    3.60
  -5   6   3   93.09    3.20
  -4  -6   3  179.28    7.50
  -4  -6   3  200.38    7.80
   4  -6  -3  218.78    8.80
   4  -6  -3  235.58    7.80
  -4  -6   3  206.08    7.70
  -4  -6   3  205.78    7.30
   4  -6  -3  198.38    8.50
   4  -6  -3  202.78    7.90
  -4  -6   3  215.18    7.40
  -4  -6   3  206.88    7.70
   4  -6  -3  205.68    7.90
  -4  -6   3  219.68    9.10
  -4   6   3  223.48    7.60
  -4   6   3  219.58    7.60
  -3  -6   3   94.39    4.00
  -3  -6   3  101.59    4.10
  -3  -6   3  101.09    3.70
  -3  -6   3   93.09    3.60
  -3  -6   3   98.79    3.70
  -3  -6   3   92.29    4.40
   3  -6  -3  100.49    4.60
   3  -6  -3   94.59    4.20
  -3  -6   3   96.09    4.50
   3  -6  -3   96.49    4.20
  -3  -6   3   93.39    4.50
   3  -6  -3  104.19    4.20
   3  -6  -3  100.79    4.00
   3  -6  -3   94.99    4.80
  -3  -6   3   98.79    4.10
  -3   6   3  101.99    3.70
  -3   6   3  109.49    3.80
  -3   6   3   94.59    4.20
   2  -6  -3   96.39    4.10
  -2  -6   3   90.89    4.00
   2  -6  -3   93.39    4.60
  -2  -6   3   90.69    4.50
  -2  -6   3   96.49    4.00
  -2  -6   3   95.39    3.50
  -2  -6   3   90.39    3.80
  -2  -6   3   90.89    4.70
   2  -6  -3  101.59    4.20
   2  -6  -3   92.89    4.10
  -2  -6   3   93.39    4.50
   2  -6  -3   98.59    4.00
   2  -6  -3   91.09    4.10
   2  -6  -3   98.29    4.60
  -2   6   3   95.09    4.80
  -2   6   3  100.89    3.50
  -2   6   3   95.89    3.40
   1  -6  -3    1.90    0.70
   1  -6  -3    3.60    2.40
   1  -6  -3    2.00    0.70
  -1  -6   3    1.20    0.50
   1  -6  -3    1.60    0.60
  -1  -6   3    1.90    0.70
   1  -6  -3    2.60    0.70
  -1  -6   3    1.40    0.60
  -1  -6   3    1.80    0.70
  -1  -6   3    1.40    2.50
  -1  -6   3    6.50    3.20
   1  -6  -3    1.60    0.80
   1  -6  -3    1.10    0.60
   0  -6  -3  480.55   15.20
   0  -6  -3  425.56   14.90
   0  -6  -3  425.06   15.10
   0  -6  -3  427.16   14.70
   0  -6   3  395.76   16.20
   0  -6   3  422.56   14.80
   0  -6   3  420.56   15.50
   0  -6  -3  419.26   15.10
   0  -6   3  408.26   14.70
   0  -6   3  410.06   15.00
   0  -6  -3  408.06   15.40
   0  -6  -3  453.35   15.60
   0  -6   3  417.86   15.80
   0  -6   3  414.96   14.80
   0  -6  -3  421.66   15.10
   0   6  -3  435.06   14.70
   0   6  -3  432.66   14.60
  -1  -6  -3  210.88    7.80
  -1  -6  -3  191.78    7.40
  -1  -6  -3  221.08    7.50
  -1  -6  -3  194.58    7.20
  -1  -6  -3  194.38    6.80
   1  -6   3  185.48    7.40
   1  -6   3  180.08    8.50
   1  -6   3  186.48    8.00
  -1  -6  -3  193.28    7.40
  -1  -6  -3  188.38    7.30
   1  -6   3  183.78    7.20
   1  -6   3  188.88    6.90
  -1  -6  -3  188.18    7.60
   1  -6   3  191.38    7.70
  -1  -6  -3  189.08    7.10
   1  -6   3  185.78    7.00
  -1   6  -3  223.48    7.40
  -1   6  -3  197.38    7.20
  -1   6  -3  197.98    7.20
  -2  -6  -3   40.30    2.00
  -2  -6  -3   46.80    2.10
   2  -6   3   41.60    2.70
   2  -6   3   40.50    2.40
  -2  -6  -3   40.90    2.10
  -2  -6  -3   43.40    2.20
   2  -6   3   40.00    1.90
  -2  -6  -3   42.80    2.30
   2  -6   3   40.00    2.20
   2  -6   3   42.40    2.20
  -2  -6  -3   42.50    2.10
   2  -6   3   41.10    3.10
  -2  -6  -3   43.70    1.90
   2  -6   3   42.10    2.40
  -2  -6  -3   42.90    2.30
  -2   6  -3   43.00    1.70
  -2   6  -3   43.00    1.80
  -3  -6  -3   73.29    3.40
   3  -6   3   73.49    3.30
   3  -6   3   69.09    3.50
  -3  -6  -3   80.49    3.70
   3  -6   3   71.09    3.70
   3  -6   3   87.99    5.30
  -3  -6  -3   82.99    4.00
  -3  -6  -3   72.99    3.20
  -3  -6  -3   68.99    3.20
  -3  -6  -3   72.19    3.00
  -3  -6  -3   71.79    3.00
   3  -6   3   71.09    3.60
  -3   6  -3   79.59    2.80
  -3   6  -3   76.89    2.90
  -3   6  -3   75.79    3.20
  -3   6  -3   76.19    2.90
  -4  -6  -3    7.60    0.70
  -4  -6  -3    8.10    0.70
   4  -6   3    7.20    0.80
  -4  -6  -3    7.40    0.80
  -4  -6  -3    7.20    0.60
   4  -6   3    7.30    1.00
  -4  -6  -3    7.80    0.80
   4  -6   3    6.70    1.30
   4  -6   3    6.40    0.90
   4  -6   3    6.00    0.90
  -4  -6  -3    6.90    0.70
  -4  -6  -3    6.70    0.70
  -4   6  -3    7.20    0.50
  -4   6  -3    7.60    0.50
  -4   6  -3    6.60    0.70
  -4   6  -3    7.60    0.50
  -5  -6  -3   40.40    2.00
   5  -6   3   35.00    1.60
  -5  -6  -3   35.20    1.70
   5  -6   3   33.50    1.90
   5  -6   3   29.70    2.80
   5  -6   3   38.30    2.40
  -5  -6  -3   34.30    1.50
  -5  -6  -3   40.50    2.00
  -5  -6  -3   37.20    1.90
  -5   6  -3   35.80    1.40
  -5   6  -3   34.70    1.50
  -6  -6  -3   73.39    2.90
  -6  -6  -3   77.39    2.80
  -6  -6  -3   75.39    3.00
  -6  -6  -3   75.99    2.90
   6  -6   3   73.29    3.20
  -6  -6  -3   82.29    3.00
   6  -6   3   83.69    4.10
  -6   6  -3   79.09    2.80
  -6   6  -3   80.59    2.90
  -5  -7   3   76.89    2.90
  -5  -7   3   76.89    2.90
   5  -7  -3   66.29    2.90
   5  -7  -3   83.09    3.40
  -5  -7   3   82.79    3.10
  -4  -7   3   33.50    1.60
  -4  -7   3   33.40    1.50
   4  -7  -3   32.30    1.90
   4  -7  -3   33.10    1.70
   4  -7  -3   34.20    1.90
  -4  -7   3   32.30    1.50
  -4  -7   3   32.70    1.50
  -4  -7   3   31.50    1.90
   4  -7  -3   34.30    1.60
  -3  -7   3    2.80    0.50
  -3  -7   3    2.40    0.40
  -3  -7   3    3.30    0.80
   3  -7  -3    2.90    0.60
  -3  -7   3    2.60    0.50
  -3  -7   3    2.20    0.60
  -3  -7   3    2.40    0.60
   3  -7  -3    3.00    0.50
   3  -7  -3    2.50    0.70
   3  -7  -3    2.40    0.50
   2  -7  -3    9.50    0.80
  -2  -7   3   12.60    1.10
  -2  -7   3   10.30    1.00
  -2  -7   3   10.80    0.70
  -2  -7   3   10.70    1.00
   2  -7  -3   12.70    1.20
   2  -7  -3   10.90    1.60
   2  -7  -3   11.30    0.80
  -2  -7   3    9.30    1.00
   1  -7  -3    7.60    0.80
  -1  -7   3    7.70    0.60
   1  -7  -3    7.00    0.80
  -1  -7   3    7.80    0.80
  -1  -7   3    6.70    0.90
  -1  -7   3    7.60    0.60
   1  -7  -3    8.00    0.70
   1  -7  -3    7.70    0.90
  -1  -7   3    8.40    1.10
   0  -7   3   42.40    2.50
   0  -7  -3   47.30    2.20
   0  -7   3   44.00    2.60
   0  -7  -3   40.30    1.80
   0  -7   3   45.30    3.00
   0  -7  -3   35.80    1.60
   0  -7  -3   36.60    1.90
   0  -7   3   39.00    1.70
   0  -7  -3   44.60    2.30
   0  -7   3   41.30    1.80
   0  -7   3   38.80    1.80
   0  -7  -3   43.40    2.20
   1  -7   3   59.29    2.70
  -1  -7  -3   61.49    2.40
  -1  -7  -3   58.69    2.40
  -1  -7  -3   53.29    2.40
  -1  -7  -3   57.09    2.60
  -1  -7  -3   57.29    2.40
   1  -7   3   57.49    2.40
  -1  -7  -3   60.59    2.20
   1  -7   3   53.89    3.00
   1  -7   3   54.49    2.70
  -2  -7  -3   19.10    1.00
  -2  -7  -3   19.50    1.00
   2  -7   3   18.90    1.30
   2  -7   3   19.10    1.10
  -2  -7  -3   20.50    1.10
  -2  -7  -3   18.80    1.00
  -2  -7  -3   21.80    1.00
   2  -7   3   19.00    1.20
   2  -7   3   17.80    1.50
  -3  -7  -3   18.80    1.10
   3  -7   3   20.00    1.20
   3  -7   3   20.00    1.00
  -3  -7  -3   19.00    1.00
  -3  -7  -3   19.40    0.90
   3  -7   3   18.90    1.10
  -3  -7  -3   19.20    0.90
   3  -7   3   17.10    1.30
  -3  -7  -3   18.20    0.90
 -13   0   4    1.60    0.30
  13   0  -4    1.20    0.40
 -13   0   4    1.60    0.60
 -12   0   4  479.15   16.60
 -12   0   4  497.15   17.30
 -12   0   4  482.15   16.60
  12   0  -4  489.45   16.70
 -12   0   4  491.25   17.40
  12   0  -4  487.05   16.60
 -11   0   4    0.50    0.20
  11   0  -4    0.20    0.30
  11   0  -4    0.50    0.30
  11   0  -4    0.50    0.30
 -11   0   4    0.60    0.20
 -11   0   4    1.30    0.50
  10   0  -4  128.09    4.80
  10   0  -4  122.99    4.40
 -10   0   4  127.79    4.80
  10   0  -4  122.69    4.90
 -10   0   4  126.39    4.80
   9   0  -4  -33.40   17.90
  -8   0   4    2.50    0.70
   8   0  -4    2.20    1.50
   8   0  -4   11.60   14.40
   8   0  -4    2.70    0.50
  -8   0   4    2.20    1.10
   8   0  -4    3.60    1.60
   7   0  -4   66.59    3.30
   7   0  -4   60.99    2.40
   7   0  -4   64.69    3.50
  -7   0   4   61.19    3.40
  -7   0   4   62.69    2.90
   7   0  -4   60.39    2.50
   6   0  -4  222.68    8.00
  -6   0   4  242.68    8.50
  -6   0   4  229.78    8.50
   6   0  -4  223.78    8.00
  -6   0   4  233.88    8.90
   6   0  -4  235.98    8.70
   6   0  -4  236.88    8.80
   5   0  -4  276.47   10.10
  -5   0   4  278.17    9.90
  -5   0   4  286.87   10.30
   5   0  -4  278.87   10.00
  -5   0   4  270.77    9.90
   4   0  -4 1034.50   34.20
  -4   0   4 1015.50   34.10
   4   0  -4  961.00   34.00
  -4   0   4 1020.80   34.30
   4   0  -4 1022.60   34.30
   3   0  -4 1307.97   44.10
   3   0  -4 1318.67   44.00
  -3   0   4 1321.27   44.20
  -3   0   4 1351.36   44.00
   3   0  -4 1256.57   43.80
  -2   0   4  241.28    8.40
   2   0  -4  241.08    8.80
   2   0  -4  237.68    8.30
  -2   0   4  235.68    8.50
  -2   0   4  237.88    8.30
   1   0  -4  936.91   30.50
  -1   0   4  905.91   30.50
   1   0  -4  899.31   30.70
   1   0  -4  899.01   30.60
   0   0  -4    2.20    0.50
   1   0   4  169.98    6.10
  -1   0  -4  172.98    6.20
   1   0   4  168.48    6.40
  -1   0  -4  174.28    6.30
  -2   0  -4 1573.94   52.79
   2   0   4 1530.65   52.19
  -2   0  -4 1570.34   52.39
   2   0   4 1553.54   52.39
  -2   0  -4 1565.24   52.39
  -3   0  -4  190.48    7.60
  -3   0  -4  200.18    7.40
   3   0   4  199.08    7.30
   3   0   4  190.18    6.70
  -3   0  -4  190.38    7.20
   3   0   4  187.78    7.20
  -3   0  -4  196.48    7.30
   3   0   4  189.88    7.10
   4   0   4    3.90    1.10
  -4   0  -4    5.90    1.20
  -4   0  -4    5.10    1.80
  -4   0  -4    3.40    0.90
  -4   0  -4    3.90    0.70
   4   0   4    4.80    1.20
   4   0   4    4.30    1.30
   4   0   4    4.50    0.50
   5   0   4  219.98    8.50
  -5   0  -4  203.88    8.00
   5   0   4  207.38    8.10
   5   0   4  209.08    7.30
   5   0   4  209.28    7.40
   5   0   4  208.48    7.40
  -6   0  -4   26.20    2.80
  -6   0  -4   27.10    2.70
  -6   0  -4   27.80    2.80
   6   0   4   23.50    3.10
   6   0   4   26.80    1.90
   6   0   4    1.30   14.60
  -7   0  -4    5.80    0.70
   7   0   4    4.50    0.70
  -7   0  -4    4.70    0.70
   7   0   4    6.00    1.20
   7   0   4    5.20    0.40
   7   0   4    3.50    0.60
   7   0   4   -7.90   19.70
  -7   0  -4    4.80    0.90
   8   0   4   29.40    2.00
   8   0   4   30.10    1.60
  -8   0  -4   31.00    1.70
  -8   0  -4   29.20    1.60
  -8   0  -4   31.00    2.00
   8   0   4   29.50    2.10
  -9   0  -4    0.30    0.20
   9   0   4    0.30    0.30
 -10   0  -4   24.10    1.10
  10   0   4   22.50    1.20
 -13  -1   4   30.10    1.20
 -13  -1   4   29.70    1.20
 -13  -1   4   31.10    1.60
  13  -1  -4   29.50    1.40
  13   1  -4   32.70    1.40
 -13   1   4   32.00    1.30
 -13   1   4   32.00    1.30
 -12  -1   4   54.69    2.10
  12  -1  -4   51.29    2.60
 -12  -1   4   49.70    2.50
  12  -1  -4   51.29    2.10
 -12  -1   4   51.09    2.30
 -12  -1   4   54.09    2.10
  12  -1  -4   45.80    2.80
 -12   1   4   52.99    2.40
 -12   1   4   56.29    2.30
 -12   1   4   51.29    2.70
 -12   1   4   55.69    2.20
  12   1  -4   54.79    2.20
  12   1  -4   57.89    2.30
  11  -1  -4  103.39    4.00
 -11  -1   4  103.69    3.80
 -11  -1   4   89.29    4.70
  11  -1  -4   97.59    4.40
 -11  -1   4  103.69    3.90
  11  -1  -4  103.39    3.90
 -11  -1   4  100.79    5.10
 -11   1   4  112.69    5.00
  11   1  -4   22.20   30.70
 -11   1   4  105.39    4.20
  11   1  -4  109.49    3.80
 -11   1   4  106.59    4.30
  11   1  -4  108.29    4.10
  11   1  -4  108.09    3.90
 -11   1   4  106.29    4.10
  10  -1  -4    0.50    0.30
 -10  -1   4    0.70    0.20
 -10  -1   4    0.70    0.30
  10  -1  -4    0.70    0.40
 -10  -1   4    0.90    0.20
  -9  -1   4    3.90    0.80
   9  -1  -4    5.70    0.90
   9  -1  -4    2.80    0.80
  -9   1   4    5.10    0.70
   9   1  -4    4.40    0.70
   9   1  -4    4.50    0.60
   9   1  -4    4.40    0.60
  -9   1   4    3.80    0.80
  -9   1   4    3.70    0.80
  -9   1   4    5.30    0.80
   8  -1  -4   85.19    4.80
  -8  -1   4   85.59    3.70
  -8  -1   4   80.09    4.80
  -8  -1   4   80.19    4.70
   8  -1  -4   84.29    4.60
   8   1  -4   84.09    3.20
   8   1  -4   76.59    4.40
   8   1  -4   83.69    3.10
  -8   1   4   82.19    4.70
   8   1  -4   81.79    4.30
   8   1  -4   84.29    3.30
  -8   1   4   87.09    4.50
  -8   1   4   84.69    3.80
  -7  -1   4  110.59    4.50
  -7  -1   4  105.89    5.30
   7  -1  -4  113.49    5.00
  -7  -1   4  120.59    6.30
   7  -1  -4  113.49    5.30
   7   1  -4  112.89    5.00
   7   1  -4  113.19    4.00
  -7   1   4  112.09    4.70
   7   1  -4  110.29    4.10
  -7   1   4  112.99    5.10
   7   1  -4  113.39    4.30
   7   1  -4  111.29    5.00
  -7   1   4  109.99    5.20
  -7   1   4  112.99    4.70
  -6  -1   4  716.23   24.80
  -6  -1   4  694.03   24.10
  -6  -1   4  709.93   24.80
  -6  -1   4  692.03   24.10
   6  -1  -4  716.43   24.70
   6  -1  -4  702.43   24.40
  -6   1   4  689.73   23.40
  -6   1   4  704.03   24.00
  -6   1   4  671.53   23.90
  -6   1   4  711.43   24.30
  -6   1   4  721.83   24.40
  -6   1   4  690.13   23.30
   6   1  -4  707.03   24.20
   6   1  -4  683.03   23.50
   6   1  -4  687.63   23.40
   6   1  -4  704.43   24.10
   5  -1  -4   19.90    1.50
  -5  -1   4   22.10    1.70
   5  -1  -4   19.70    1.70
  -5  -1   4   21.10    1.70
  -5  -1   4   21.10    1.40
   5   1  -4   20.60    1.50
  -5   1   4   19.50    0.80
  -5   1   4   19.20    1.30
  -5   1   4   21.80    1.50
   5   1  -4   20.10    1.40
   5   1  -4   20.10    0.90
  -5   1   4   21.90    1.50
  -4  -1   4 1737.73   58.79
   4  -1  -4 1775.52   58.99
   4  -1  -4 1777.12   58.79
  -4  -1   4 1713.43   58.89
   4   1  -4 1741.03   59.59
  -4   1   4 1787.72   59.79
  -4   1   4 1801.42   59.69
   4   1  -4 1819.12   59.69
  -4   1   4 1783.92   59.79
   4   1  -4 1753.02   59.69
  -3  -1   4 1263.07   42.20
  -3  -1   4 1244.88   42.40
   3  -1  -4 1241.48   42.20
  -3  -1   4 1261.37   42.30
   3  -1  -4 1244.58   42.30
  -3   1   4 1283.27   42.10
   3   1  -4 1246.68   42.00
  -3   1   4 1256.07   42.00
   3   1  -4 1223.58   41.90
   3   1  -4 1240.48   42.00
   2  -1  -4  834.82   28.00
   2  -1  -4  831.92   28.40
  -2  -1   4  840.72   28.50
  -2  -1   4  839.32   28.50
   2   1  -4  808.12   27.40
   2   1  -4  818.82   27.50
  -2   1   4  811.92   27.50
  -2   1   4  791.92   27.30
  -2   1   4  838.02   27.50
   1  -1  -4 2198.78   73.79
  -1  -1   4 2223.88   73.89
  -1  -1   4 2202.18   73.69
   1  -1  -4 2194.78   73.39
  -1   1   4 2188.08   72.29
   1   1  -4 2127.19   72.29
   1   1  -4 2195.18   72.59
  -1   1   4 2145.79   72.19
   1   1  -4 2215.88   72.39
  -1   1   4 2142.69   72.29
   0  -1  -4  918.61   30.60
   0  -1   4  871.21   29.90
   0  -1   4  874.81   30.00
   0  -1   4  886.81   30.20
   0  -1  -4  871.61   29.80
   0   1   4  849.81   29.00
   0   1   4  892.61   29.20
   0   1  -4  872.31   29.20
   0   1  -4  857.51   29.20
   0   1  -4  853.81   29.40
  -1  -1  -4 1611.84   54.19
   1  -1   4 1573.24   53.39
   1  -1   4 1578.14   53.39
  -1  -1  -4 1605.74   53.39
   1   1   4 1579.84   52.99
   1   1   4 1579.74   52.69
  -1   1  -4 1596.34   52.79
  -1   1  -4 1601.04   53.09
   1   1   4 1518.15   52.59
   2  -1   4 1349.16   46.80
  -2  -1  -4 1387.06   46.80
   2  -1   4 1416.96   46.90
  -2  -1  -4 1346.87   47.60
  -2  -1  -4 1460.85   47.00
   2   1   4 1355.16   47.30
   2   1   4 1431.86   47.70
  -2   1  -4 1420.96   47.90
  -2   1  -4 1427.06   47.40
   2   1   4 1391.86   46.90
  -2   1  -4 1394.16   47.50
  -2   1  -4 1454.55   47.70
   2   1   4 1397.56   47.20
  -3   1  -4  154.78    5.40
   3   1   4  153.58    5.40
   3   1   4  149.19    5.40
  -3   1  -4  154.48    6.00
   3   1   4  149.19    5.70
  -3   1  -4  167.48    6.60
  -3   1  -4  157.88    6.30
   3   1   4  151.48    6.20
  -3   1  -4  152.08    6.30
  -4   1  -4  581.34   20.20
   4   1   4  546.15   19.50
   4   1   4  585.44   20.10
   4   1   4  586.04   19.20
  -4   1  -4  561.14   19.90
   4   1   4  560.74   19.00
  -4   1  -4  571.04   19.90
  -4   1  -4  541.85   19.70
   4   1   4  571.84   20.10
   4   1   4  544.85   19.80
   5  -1   4  137.09    5.70
  -5  -1  -4  131.79    5.80
  -5  -1  -4  137.59    6.80
  -5  -1  -4  136.29    5.50
  -5  -1  -4  142.29    6.20
  -5   1  -4  138.99    5.80
  -5   1  -4  142.39    6.10
  -5   1  -4  135.89    6.20
   5   1   4  142.39    5.00
   5   1   4  139.49    6.20
   5   1   4  136.99    6.30
   5   1   4  144.69    6.30
   6  -1   4  207.28    8.10
  -6  -1  -4  199.38    7.80
  -6   1  -4  201.38    8.60
   6   1   4  199.98    8.10
   6   1   4  192.38    9.20
   6   1   4  218.38    7.40
  -6   1  -4  206.28    8.20
  -6   1  -4  202.38    8.80
   6   1   4  211.68    7.30
   6   1   4  206.68    7.40
   7  -1   4  334.37   12.10
   7  -1   4  319.47   11.40
  -7  -1  -4  336.37   11.90
   7  -1   4  306.07   11.40
  -7  -1  -4  317.87   11.40
  -7  -1  -4  320.07   11.30
  -7   1  -4  340.07   12.50
  -7   1  -4  326.17   11.80
   7   1   4  323.77   12.40
   7   1   4  333.27   11.40
   7   1   4  337.27   11.80
  -7   1  -4  325.47   11.70
  -7   1  -4  327.47   11.70
   7   1   4  334.77   11.30
   7   1   4  334.47   11.60
  -8  -1  -4   50.69    2.30
  -8  -1  -4   51.59    2.20
   8  -1   4   47.10    2.30
   8  -1   4   48.80    2.80
  -8  -1  -4   49.20    2.60
   8  -1   4   51.19    2.30
  -8   1  -4   51.09    2.80
  -8   1  -4   50.99    2.20
   8   1   4   51.89    2.00
  -8   1  -4   48.40    2.30
   8   1   4   53.09    3.10
  -8   1  -4   48.90    2.40
   8   1   4   50.89    2.10
   8   1   4   47.50    2.20
  -9  -1  -4   14.80    1.30
   9  -1   4   15.40    1.00
  -9  -1  -4   15.60    1.20
   9  -1   4   14.60    1.00
  -9  -1  -4   15.40    1.00
  -9  -1  -4   15.60    0.90
  -9  -1  -4   15.20    1.00
   9   1   4   17.60    1.10
   9   1   4   12.70    0.90
   9   1   4   16.20    0.70
  -9   1  -4   16.60    1.00
  -9   1  -4   16.00    1.40
  -9   1  -4   15.90    1.10
  10  -1   4   36.30    1.60
 -10  -1  -4   37.50    1.80
  10  -1   4   38.20    1.80
 -10  -1  -4   37.30    1.60
 -10  -1  -4   36.70    1.60
 -10  -1  -4   37.40    1.60
 -10   1  -4   37.40    1.70
 -10   1  -4   37.20    1.60
 -10   1  -4   39.10    1.60
  10   1   4   38.90    1.80
 -12  -2   4   17.80    0.80
 -12  -2   4   17.40    0.80
 -12  -2   4   15.70    1.10
 -12  -2   4   14.00    1.00
  12  -2  -4   17.40    1.00
 -12   2   4   18.30    1.00
  12   2  -4   20.20    0.80
 -12   2   4   18.20    1.00
  12   2  -4   20.00    1.20
 -12   2   4   19.40    0.90
  12   2  -4   17.40    1.40
 -11  -2   4   75.99    2.90
  11  -2  -4   74.49    3.60
 -11  -2   4   73.69    3.30
 -11  -2   4   75.69    3.20
 -11  -2   4   75.99    2.80
  11  -2  -4   69.59    3.00
  11   2  -4   86.89    3.10
 -11   2   4   81.69    3.40
  11   2  -4   91.09    3.50
  11   2  -4   91.99    3.40
  11   2  -4   88.39    3.50
 -11   2   4   81.79    3.20
  11   2  -4   80.79    3.30
 -11   2   4   85.59    4.60
 -11   2   4   79.39    3.30
 -10  -2   4   77.69    3.70
 -10  -2   4   83.29    3.20
 -10  -2   4   82.09    3.60
  10  -2  -4   81.99    3.40
  10  -2  -4   95.29    4.80
 -10  -2   4   83.29    3.30
  10   2  -4   86.79    3.30
 -10   2   4   85.59    3.40
  10   2  -4   84.29    3.10
 -10   2   4   81.79    3.50
 -10   2   4   83.79    3.40
  10   2  -4   89.39    3.40
  10   2  -4   86.79    3.50
 -10   2   4   87.19    4.00
  10   2  -4   86.79    3.30
 -10   2   4   85.59    3.00
  -9  -2   4  133.59    4.90
  -9  -2   4  124.19    4.60
   9  -2  -4  130.39    5.60
  -9  -2   4  121.79    5.20
  -9  -2   4  125.19    4.70
  -9  -2   4  117.39    5.00
   9  -2  -4  120.69    4.70
   9   2  -4  131.69    4.80
   9   2  -4  127.09    4.70
  -9   2   4  134.89    4.70
  -9   2   4  133.89    4.60
   9   2  -4  133.39    4.90
  -9   2   4  133.09    5.70
  -9   2   4  129.69    4.90
   9   2  -4  138.49    5.00
   9   2  -4  132.29    5.00
   8  -2  -4   17.50    3.70
   8  -2  -4   13.60    1.50
  -8  -2   4   13.70    1.10
   8   2  -4   13.00    0.90
   8   2  -4   13.50    0.90
  -8   2   4   14.20    0.80
   8   2  -4   13.60    0.80
   8   2  -4   14.70    2.80
  -8   2   4   14.70    2.10
   8   2  -4   11.80    3.70
  -8   2   4   13.40    0.80
  -8   2   4   15.30    2.80
  -8   2   4   12.20    2.90
  -7  -2   4   14.40    2.70
   7  -2  -4   12.70    3.20
  -7  -2   4   11.70    0.90
   7   2  -4   11.00    0.80
  -7   2   4   11.70    2.10
  -7   2   4   11.90    1.20
  -7   2   4   10.10    1.90
  -7   2   4   11.10    0.70
  -7   2   4   12.80    1.70
   7   2  -4    7.20    2.00
  -7   2   4   11.20    0.60
   7   2  -4   10.70    0.70
   7   2  -4   11.00    0.80
  -7   2   4   11.10    0.70
   7   2  -4   10.30    2.50
   6  -2  -4  798.82   28.50
  -6  -2   4  707.53   25.30
  -6  -2   4  757.32   25.40
  -6  -2   4  732.53   25.50
  -6   2   4  773.72   26.70
  -6   2   4  797.12   27.30
  -6   2   4  757.32   25.60
   6   2  -4  772.32   25.70
   6   2  -4  733.43   26.30
  -6   2   4  757.62   26.30
  -6   2   4  783.12   25.60
   6   2  -4  764.82   26.50
  -6   2   4  741.53   26.50
   6   2  -4  755.22   25.60
  -5  -2   4  229.58    8.50
   5  -2  -4  242.18    9.40
   5  -2  -4  245.48    9.10
  -5  -2   4  246.28    9.60
  -5  -2   4  226.28    8.40
  -5  -2   4  246.78    8.90
   5   2  -4  236.48    8.10
  -5   2   4  241.88    9.00
  -5   2   4  238.58    8.20
  -5   2   4  238.78    8.90
   5   2  -4  241.88    8.90
  -5   2   4  234.88    8.80
  -5   2   4  233.28    8.70
   5   2  -4  230.98    8.60
  -5   2   4  238.78    8.10
   5   2  -4  236.28    8.20
   5   2  -4  239.58    8.90
  -4  -2   4  983.10   33.40
   4  -2  -4  981.30   33.00
  -4  -2   4  977.00   32.50
  -4  -2   4  909.51   32.30
   4   2  -4  908.81   31.70
  -4   2   4  954.80   32.20
   4   2  -4  955.90   32.00
  -4   2   4  960.70   32.80
  -4   2   4  917.21   31.40
   4   2  -4  959.10   32.10
  -4   2   4  941.01   31.40
   4   2  -4  930.51   31.40
  -3  -2   4 1164.28   38.30
  -3  -2   4 1115.89   39.00
  -3  -2   4 1115.29   38.80
   3  -2  -4 1179.28   39.40
   3  -2  -4 1116.59   38.70
   3   2  -4 1043.60   35.70
   3   2  -4 1078.39   36.10
   3   2  -4 1093.59   36.30
  -3   2   4 1060.39   36.30
  -3   2   4 1090.49   36.30
  -3   2   4 1061.49   35.60
   2  -2  -4 1482.35   49.90
  -2  -2   4 1466.05   50.39
   2  -2  -4 1476.15   50.19
   2  -2  -4 1521.55   50.79
  -2   2   4 1373.66   48.60
   2   2  -4 1505.45   48.70
  -2   2   4 1467.15   48.70
  -1  -2   4  972.70   34.20
  -1  -2   4 1028.50   34.10
   1  -2  -4  988.50   33.90
   1  -2  -4 1015.10   34.80
  -1   2   4  980.00   32.90
   1   2  -4  967.10   32.90
  -1   2   4  966.40   32.90
  -1   2   4  977.80   33.10
   1   2  -4 1005.00   33.60
   1   2  -4  985.90   33.10
   0  -2   4  439.36   15.50
   0  -2   4  437.76   15.80
   0  -2  -4  448.66   15.60
   0  -2  -4  454.45   16.40
   0   2  -4  444.36   15.50
   0   2   4  427.06   14.90
   0   2   4  431.46   15.00
   0   2  -4  433.46   14.60
   0   2  -4  445.86   15.10
   1  -2   4  800.32   27.60
  -1  -2  -4  851.51   30.20
   1  -2   4  792.92   27.40
   1  -2   4  762.82   27.10
  -1   2  -4  819.62   28.10
  -1   2  -4  813.82   26.80
   1   2   4  833.52   27.90
   1   2   4  783.02   27.00
  -1   2  -4  802.52   27.30
   1   2   4  776.52   27.00
   1   2   4  785.72   26.70
  -2  -2  -4   28.30    2.50
  -2  -2  -4   30.70    1.90
   2  -2   4   25.50    1.50
  -2  -2  -4   30.10    1.90
   2   2   4   25.20    1.30
   2   2   4   26.70    1.10
  -2   2  -4   27.70    1.20
   2   2   4   27.10    1.10
   2   2   4   27.70    1.90
  -2   2  -4   28.00    1.70
  -2   2  -4   28.80    2.00
  -2   2  -4   28.00    1.30
  -2   2  -4   28.70    2.20
   3  -2   4  123.69    4.90
   3  -2   4  118.19    4.80
  -3  -2  -4  124.59    6.10
  -3  -2  -4  123.19    4.70
  -3  -2  -4  126.69    5.40
   3   2   4  119.99    4.80
  -3   2  -4  132.99    4.60
  -3   2  -4  126.39    5.40
  -3   2  -4  130.09    4.70
  -3   2  -4  130.59    5.70
  -3   2  -4  130.69    5.90
   3   2   4  130.99    4.50
   3   2   4  129.49    5.60
   3   2   4  132.09    4.60
  -3   2  -4  127.59    5.30
   4  -2   4   24.00    2.20
  -4  -2  -4   22.60    1.40
  -4  -2  -4   27.80    4.20
  -4  -2  -4   27.00    2.20
   4  -2   4   25.10    1.70
  -4   2  -4   23.90    1.90
   4   2   4   25.00    2.50
  -4   2  -4   24.70    1.30
   4   2   4   25.80    1.10
   4   2   4   26.30    1.50
  -4   2  -4   24.50    2.00
  -4   2  -4   25.00    1.20
  -4   2  -4   24.00    2.20
   4   2   4   25.90    2.20
  -4   2  -4   25.10    1.20
  -5  -2  -4  117.89    4.70
   5  -2   4  116.09    5.00
  -5  -2  -4  113.89    5.60
  -5  -2  -4  118.59    7.10
  -5   2  -4  122.49    5.40
   5   2   4  121.19    4.50
  -5   2  -4  120.29    4.40
   5   2   4  124.09    6.00
  -5   2  -4  119.89    4.60
  -5   2  -4  123.39    4.50
   5   2   4  130.69    6.20
   5   2   4  123.19    4.60
  -5   2  -4  124.09    6.10
  -5   2  -4  117.59    6.10
  -6  -2  -4  195.18    7.70
   6  -2   4  196.48    7.70
  -6  -2  -4  191.48    7.30
   6  -2   4  200.48    7.70
   6  -2   4  198.18    7.40
   6  -2   4  210.88    7.70
  -6  -2  -4  177.38    7.20
  -6  -2  -4  192.78    7.50
  -6  -2  -4  195.18    7.30
  -6  -2  -4  177.38    7.10
   6   2   4  195.38    7.30
  -6   2  -4  194.68    8.00
   6   2   4  206.58    7.00
   6   2   4  205.68    7.20
   6   2   4  203.18    6.90
  -6   2  -4  188.88    7.10
  -6   2  -4  189.78    7.10
   6   2   4  205.08    7.10
  -7  -2  -4   11.60    1.00
  -7  -2  -4   13.40    1.40
  -7  -2  -4   12.30    1.10
   7  -2   4   13.20    1.40
   7  -2   4   11.30    1.00
  -7  -2  -4   11.50    0.90
  -7  -2  -4   12.40    0.90
  -7   2  -4   14.10    1.70
   7   2   4   12.90    1.00
   7   2   4   14.50    0.90
  -7   2  -4   13.50    1.30
  -7   2  -4   14.30    0.70
  -7   2  -4   13.20    1.00
   7   2   4   14.10    0.90
   7   2   4   13.80    1.10
  -7   2  -4   13.10    1.20
   7   2   4   14.00    0.80
   8  -2   4   54.59    2.40
  -8  -2  -4   53.69    2.40
  -8  -2  -4   56.09    2.80
  -8  -2  -4   56.19    2.40
  -8  -2  -4   55.19    2.30
  -8   2  -4   55.29    3.20
  -8   2  -4   60.89    2.60
   8   2   4   60.49    2.40
   8   2   4   60.19    2.50
  -8   2  -4   57.79    2.90
  -8   2  -4   65.19    3.20
   8   2   4   60.49    2.60
   8   2   4   59.29    2.30
   8   2   4   58.49    2.40
  -9  -2  -4    8.60    1.10
  -9  -2  -4    6.20    0.60
  -9  -2  -4    7.00    0.80
  -9  -2  -4    6.70    0.50
   9  -2   4    5.10    1.30
   9  -2   4    7.00    0.70
  -9  -2  -4    6.60    0.50
  -9   2  -4    8.60    1.20
   9   2   4    8.00    0.60
   9   2   4    7.40    0.80
   9   2   4    8.60    0.70
  -9   2  -4    7.80    0.60
   9   2   4    7.40    0.80
  -9   2  -4    5.20    1.00
  10  -2   4   46.80    1.80
 -10  -2  -4   44.00    2.30
 -10  -2  -4   42.90    1.90
 -10  -2  -4   44.80    1.70
 -10  -2  -4   45.50    1.80
 -10  -2  -4   40.90    2.00
  10   2   4   50.49    1.70
 -10   2  -4   44.30    1.90
  10   2   4   52.39    2.00
 -10   2  -4   45.20    2.10
 -10   2  -4   51.29    2.10
  12  -3  -4   30.40    1.20
 -12  -3   4   27.50    1.30
 -12  -3   4   25.40    1.50
  12  -3  -4   27.50    1.70
 -12   3   4   33.80    1.40
  12   3  -4   33.80    1.60
  12   3  -4   31.80    1.30
  12   3  -4   33.30    1.20
  11  -3  -4   88.09    3.30
 -11  -3   4   83.79    3.40
  11  -3  -4   81.99    4.10
  11  -3  -4   85.29    3.80
 -11  -3   4   90.49    4.10
  11   3  -4   94.89    3.70
  11   3  -4   99.69    3.50
 -11   3   4   98.19    3.60
  11   3  -4   94.59    3.60
  11   3  -4  101.29    3.70
  11   3  -4   99.49    3.60
  10  -3  -4   21.50    1.70
  10  -3  -4   22.50    1.20
 -10  -3   4   18.80    1.00
 -10  -3   4   22.40    1.40
  10   3  -4   22.90    1.30
 -10   3   4   23.90    1.30
 -10   3   4   19.40    2.00
  10   3  -4   23.40    1.00
  10   3  -4   22.60    1.20
  10   3  -4   24.30    1.20
 -10   3   4   22.70    1.20
 -10   3   4   23.20    0.90
  -9  -3   4   79.89    3.10
   9  -3  -4   85.09    3.50
  -9  -3   4   81.89    3.80
  -9  -3   4   79.59    3.00
   9  -3  -4   84.39    4.10
  -9  -3   4   79.29    3.80
  -9  -3   4   80.09    3.10
   9   3  -4   85.09    3.50
   9   3  -4   93.29    3.40
  -9   3   4   91.99    3.30
   9   3  -4   99.19    3.80
  -9   3   4   88.49    3.20
   9   3  -4   88.19    3.30
  -9   3   4   90.89    3.30
   9   3  -4   89.79    3.60
  -9   3   4   94.19    3.80
  -9   3   4   87.89    3.60
  -8  -3   4   71.89    2.90
   8  -3  -4   73.19    3.00
  -8  -3   4   75.89    3.40
  -8  -3   4   59.39    3.20
  -8  -3   4   72.19    2.70
   8  -3  -4   74.49    3.70
  -8  -3   4   72.59    2.80
  -8  -3   4   69.59    3.40
   8   3  -4   77.09    3.00
   8   3  -4   72.99    2.90
  -8   3   4   78.69    3.20
  -8   3   4   77.89    2.90
   8   3  -4   80.59    3.10
  -8   3   4   81.69    3.00
  -8   3   4   79.89    3.00
  -8   3   4   79.39    2.80
   8   3  -4   81.89    3.00
   8   3  -4   76.99    3.20
   7  -3  -4   34.00    2.30
   7   3  -4   32.60    3.10
  -7   3   4   31.50    1.50
  -7   3   4   32.70    1.40
   7   3  -4   34.30    1.60
   7   3  -4   33.00    1.40
  -7   3   4   36.20    3.90
  -7   3   4   32.70    1.40
   7   3  -4   31.40    1.50
   6  -3  -4   33.50    2.20
  -6  -3   4   32.80    2.20
  -6  -3   4   33.30    3.60
   6   3  -4   38.20    1.50
  -6   3   4   36.10    1.60
  -6   3   4   37.80    2.80
  -6   3   4   37.40    1.50
  -6   3   4   36.10    1.50
  -6   3   4   35.30    2.60
   6   3  -4   35.30    2.70
   6   3  -4   37.40    1.60
  -5  -3   4  338.27   13.50
  -5  -3   4  343.77   12.90
   5  -3  -4  333.97   12.50
   5   3  -4  331.87   12.50
  -5   3   4  337.07   12.90
   5   3  -4  339.77   11.60
  -5   3   4  338.57   12.80
   5   3  -4  341.77   11.70
   5   3  -4  356.46   12.70
  -5   3   4  341.57   11.60
  -5   3   4  349.27   11.90
  -4  -3   4  132.09    5.00
  -4  -3   4  134.49    5.30
  -4  -3   4  137.69    6.40
   4  -3  -4  134.69    5.60
  -4   3   4  137.19    4.90
   4   3  -4  144.99    4.80
   4   3  -4  134.69    5.50
   4   3  -4  139.59    5.70
  -4   3   4  134.99    5.70
  -4   3   4  141.99    5.80
   4   3  -4  135.29    4.90
   3   3  -4  130.09    4.50
  -3   3   4  128.29    4.50
  -3   3   4  130.79    5.40
  -3   3   4  127.39    4.50
   3   3  -4  132.79    5.30
   3   3  -4  129.09    4.60
   3   3  -4  133.09    5.10
  -3   3   4  125.19    5.40
  -2  -3   4  263.57   10.10
  -2  -3   4  244.88    9.00
   2  -3  -4  260.07   10.50
   2   3  -4  250.97    8.60
   2   3  -4  273.27    9.40
  -2   3   4  248.98    9.20
   2   3  -4  254.67    8.70
  -2   3   4  245.98    8.60
  -2   3   4  256.47    9.40
   2   3  -4  240.08    9.00
  -2   3   4  253.67    8.60
   2   3  -4  264.37    9.90
   1  -3  -4   18.70    1.50
   1  -3  -4   16.00    2.00
  -1  -3   4   17.40    1.70
  -1  -3   4   15.90    1.10
   1   3  -4   17.70    1.70
  -1   3   4   15.60    0.70
   1   3  -4   17.00    1.40
   1   3  -4   16.10    0.70
   1   3  -4   17.20    0.80
   0  -3  -4  417.06   15.00
   0  -3   4  409.56   15.30
   0  -3  -4  429.96   16.20
   0   3  -4  431.16   15.60
   0   3   4  413.66   14.70
   0   3  -4  425.56   14.90
   0   3   4  421.06   14.20
   0   3  -4  435.46   14.30
   0   3   4  418.26   14.30
   1  -3   4  283.87   10.20
   1  -3   4  276.67   10.30
   1  -3   4  290.67   11.00
  -1  -3  -4  292.47   12.00
  -1  -3  -4  304.07   11.00
  -1   3  -4  307.07   11.60
   1   3   4  300.87   10.20
  -1   3  -4  306.27   10.40
  -1   3  -4  303.97   10.30
   1   3   4  292.77   10.50
  -1   3  -4  304.47   10.90
  -1   3  -4  304.47   12.00
   1   3   4  298.97   11.40
   2  -3   4  156.18    5.90
  -2  -3  -4  168.98    7.20
   2  -3   4  150.48    6.40
  -2  -3  -4  152.28    8.20
   2   3   4  161.18    6.10
  -2   3  -4  170.48    7.70
  -2   3  -4  167.18    5.90
  -2   3  -4  160.98    6.50
  -2   3  -4  173.18    8.90
  -2   3  -4  167.98    5.80
   2   3   4  160.68    5.70
   3  -3   4   82.79    3.90
  -3  -3  -4   85.29    5.40
   3  -3   4   88.59    3.70
  -3  -3  -4   91.39    4.60
  -3   3  -4   95.29    3.60
  -3   3  -4   94.09    4.30
   3   3   4   92.49    3.40
   3   3   4   91.69    4.70
  -3   3  -4   94.29    5.00
   3   3   4   90.39    3.80
  -3   3  -4   91.99    3.40
  -3   3  -4   94.79    3.80
  -3   3  -4   95.89    5.30
   4  -3   4  307.77   11.50
   4  -3   4  314.47   11.50
  -4  -3  -4  333.87   15.80
  -4   3  -4  318.67   15.40
  -4   3  -4  339.17   11.50
  -4   3  -4  340.67   11.50
  -4   3  -4  316.57   12.40
   4   3   4  341.37   11.30
  -4   3  -4  331.47   11.40
   4   3   4  333.17   11.40
   4   3   4  306.37   14.00
   4   3   4  339.27   11.40
  -5  -3  -4  213.48    8.30
   5  -3   4  248.88    8.70
   5  -3   4  227.58    8.50
   5  -3   4  232.58    8.50
  -5  -3  -4  215.38    7.90
  -5  -3  -4  209.18    8.40
  -5  -3  -4  218.38    8.40
  -5  -3  -4  227.28    8.60
  -5  -3  -4  217.58    7.80
  -5   3  -4  248.18    8.50
  -5   3  -4  250.87    8.50
   5   3   4  230.58    8.30
   5   3   4  230.98    9.10
   5   3   4  251.57    8.60
  -5   3  -4  246.98    8.40
  -5   3  -4  251.37    8.60
   5   3   4  249.97    8.60
  -5   3  -4  210.58    9.30
  -6  -3  -4   66.39    2.60
  -6  -3  -4   65.99    3.00
  -6  -3  -4   66.89    3.40
  -6  -3  -4   67.89    3.00
   6  -3   4   67.09    3.20
   6  -3   4   66.99    2.90
  -6  -3  -4   66.39    2.90
  -6  -3  -4   66.49    2.70
   6   3   4   74.29    3.10
  -6   3  -4   85.39    3.50
  -6   3  -4   71.49    3.00
   6   3   4   72.69    3.20
   6   3   4   83.09    3.30
  -6   3  -4   74.59    3.20
  -6   3  -4   73.89    2.80
  -6   3  -4   86.89    5.30
  -6   3  -4   75.09    3.00
   6   3   4   73.29    3.00
   6   3   4   72.59    2.80
  -7  -3  -4  251.57    9.00
  -7  -3  -4  244.48    9.10
   7  -3   4  241.28   10.70
  -7  -3  -4  252.17    8.70
   7  -3   4  255.27    9.20
  -7  -3  -4  254.67    8.80
  -7  -3  -4  264.57    9.50
   7  -3   4  254.47    9.00
  -7  -3  -4  258.77    9.10
  -7   3  -4  271.97    9.60
   7   3   4  284.07    9.60
   7   3   4  276.77    9.50
   7   3   4  278.47    9.70
  -7   3  -4  260.97   10.70
  -7   3  -4  277.77    9.90
   7   3   4  288.77    9.80
  -7   3  -4  279.77    9.40
  -8  -3  -4   62.39    2.90
  -8  -3  -4   64.09    2.60
  -8  -3  -4   63.49    2.50
  -8  -3  -4   61.39    2.60
   8  -3   4   63.39    2.60
   8  -3   4   61.09    3.60
   8   3   4   70.59    2.80
   8   3   4   71.39    2.60
   8   3   4   70.69    2.90
  -8   3  -4   71.19    2.50
  -8   3  -4   64.49    4.20
   8   3   4   70.79    2.80
  -8   3  -4   70.89    2.90
  -9  -3  -4    6.20    0.60
   9  -3   4    6.80    1.20
  -9  -3  -4    5.30    0.60
   9  -3   4    5.00    0.80
   9  -3   4    7.10    0.70
  -9   3  -4    6.90    0.60
   9   3   4    7.00    0.60
   9   3   4    7.10    0.50
 -11  -4   4   35.70    1.60
 -11  -4   4   34.20    1.60
  11  -4  -4   34.30    2.00
  11  -4  -4   34.30    1.40
 -11   4   4   41.30    1.60
  11   4  -4   39.60    1.60
 -11   4   4   40.40    1.40
  11   4  -4   39.20    1.50
  10  -4  -4   33.50    2.00
  10  -4  -4   33.60    1.80
  10  -4  -4   35.90    2.40
  10  -4  -4   34.70    1.50
 -10  -4   4   34.60    1.80
 -10  -4   4   36.50    1.80
 -10  -4   4   35.30    1.80
 -10   4   4   38.70    1.60
  10   4  -4   39.40    1.60
  10   4  -4   39.50    1.60
  10   4  -4   35.20    1.60
 -10   4   4   36.00    1.50
  10   4  -4   38.30    1.70
  10   4  -4   39.10    1.50
 -10   4   4   39.70    1.40
  -9  -4   4  140.69    5.50
   9  -4  -4  143.09    5.40
   9  -4  -4  135.59    6.50
   9  -4  -4  141.79    5.70
  -9  -4   4  131.09    5.40
   9  -4  -4  132.89    5.40
   9  -4  -4  138.99    5.90
  -9  -4   4  140.09    6.60
   9   4  -4  154.58    5.40
  -9   4   4  148.39    5.20
  -9   4   4  163.48    6.00
   9   4  -4  155.78    5.50
   9   4  -4  153.68    5.40
   9   4  -4  148.69    5.30
  -9   4   4  139.89    5.50
  -9   4   4  145.29    5.30
  -9   4   4  152.58    5.30
   9   4  -4  145.99    5.40
   8  -4  -4    3.10    1.30
   8  -4  -4    2.40    0.90
  -8  -4   4    2.40    0.80
   8  -4  -4    8.50    3.70
   8  -4  -4    1.80    0.50
  -8  -4   4    1.10    0.60
  -8   4   4    2.10    0.40
  -8   4   4    1.70    0.50
   8   4  -4    4.40    1.00
  -8   4   4    2.20    0.40
  -8   4   4    2.10    0.30
  -8   4   4    2.30    0.40
   8   4  -4    2.70    0.60
   8   4  -4    3.20    0.50
  -7  -4   4  142.69    5.60
   7  -4  -4  128.59    5.70
   7  -4  -4  139.59    6.70
  -7  -4   4  143.29    5.20
  -7  -4   4  141.89    5.60
   7  -4  -4  136.09    6.00
  -7  -4   4  136.09    5.70
  -7  -4   4  139.09    5.10
  -7  -4   4  141.49    5.10
   7  -4  -4  143.89    6.10
   7  -4  -4  133.09    5.10
  -7   4   4  168.18    5.60
   7   4  -4  153.88    5.60
  -7   4   4  154.48    5.50
  -7   4   4  146.19    5.70
  -7   4   4  157.48    5.70
   7   4  -4  160.28    5.70
   7   4  -4  156.48    5.70
  -7   4   4  159.28    5.60
  -6  -4   4  196.58    7.30
   6  -4  -4  163.38    7.80
   6  -4  -4  178.68    9.20
   6  -4  -4  176.28    8.20
  -6  -4   4  187.38    6.60
  -6  -4   4  168.28    7.60
  -6   4   4  209.48    7.40
   6   4  -4  205.18    7.30
   6   4  -4  208.28    7.40
  -6   4   4  211.88    7.30
  -6   4   4  207.98    7.30
   6   4  -4  211.18    7.30
  -5  -4   4  215.28    8.50
   5  -4  -4  209.08    8.60
  -5  -4   4  240.28   11.90
  -5   4   4  233.68    8.10
  -5   4   4  257.87   10.50
   5   4  -4  235.68    8.00
  -5   4   4  236.28    8.20
   5   4  -4  237.68    8.20
  -5   4   4  217.08    9.50
  -5   4   4  228.58    8.10
   5   4  -4  228.28    9.30
   4  -4  -4   36.00    2.30
  -4  -4   4   34.50    2.40
  -4  -4   4   36.90    1.80
  -4   4   4   36.20    2.80
  -4   4   4   38.20    1.60
  -4   4   4   37.10    3.80
  -4   4   4   37.50    1.50
   4   4  -4   37.90    1.60
   4   4  -4   37.90    1.50
   4   4  -4   32.60    3.20
   4   4  -4   39.40    2.70
  -4   4   4   39.90    1.60
  -3   4   4   66.19    2.50
  -3   4   4   68.99    2.40
   3   4  -4   68.79    2.40
  -3   4   4   63.29    2.70
   3   4  -4   59.59    4.20
   2   4  -4   98.19    3.50
  -2   4   4   96.29    3.60
   2   4  -4   99.19    3.50
   2   4  -4   98.09    4.00
   2   4  -4   96.29    5.00
   2   4  -4   97.69    4.40
  -2   4   4   98.49    3.40
  -2   4   4   97.99    4.50
  -1  -4   4  188.38    9.60
   1  -4  -4  185.88    7.60
   1  -4  -4  185.38    8.90
  -1   4   4  188.48    6.40
   1   4  -4  186.38    8.70
  -1   4   4  181.58    7.30
  -1   4   4  186.18    6.50
   1   4  -4  189.98    8.10
   1   4  -4  185.18    7.30
   1   4  -4  190.88    6.60
  -1   4   4  190.48    7.30
   1   4  -4  195.48    6.50
   0  -4   4   32.30    1.90
   0  -4  -4   31.70    2.70
   0  -4  -4   36.60    4.90
   0  -4   4   33.50    3.30
   0   4   4   32.20    1.30
   0   4  -4   30.80    2.30
   0   4  -4   34.50    1.50
   0   4  -4   36.70    1.40
   0   4  -4   31.30    4.10
   0   4   4   34.30    1.70
   0   4   4   34.60    2.80
   0   4  -4   28.70    3.70
   0   4   4   33.80    1.30
   1  -4   4   13.60    2.10
  -1  -4  -4   13.00    2.80
  -1  -4  -4   13.60    2.30
   1  -4   4   12.50    1.10
   1   4   4   10.80    2.20
  -1   4  -4   13.70    2.60
   1   4   4   13.50    0.60
  -1   4  -4   14.30    1.20
  -1   4  -4   13.40    0.80
   1   4   4   13.80    0.80
   1   4   4   11.80    1.10
  -1   4  -4   14.40    0.70
  -1   4  -4   13.30    1.90
  -1   4  -4   13.40    2.20
  -2  -4  -4  473.85   19.10
   2  -4   4  468.85   16.60
  -2   4  -4  492.65   19.50
  -2   4  -4  503.55   17.20
   2   4   4  504.45   17.00
   2   4   4  516.55   17.00
   2   4   4  546.05   21.80
  -2   4  -4  524.95   17.30
  -2   4  -4  496.95   19.40
  -2   4  -4  460.45   18.00
   3  -4   4  127.99    4.70
  -3  -4  -4  128.99    5.20
  -3  -4  -4  135.69    5.40
  -3  -4  -4  129.69    5.50
  -3  -4  -4  129.29    5.10
   3  -4   4  122.49    6.10
   3  -4   4  137.19    5.40
   3  -4   4  128.79    4.90
  -3  -4  -4  127.49    5.30
   3  -4   4  125.69    5.70
  -3  -4  -4  124.19    5.10
   3  -4   4  133.09    4.90
  -3  -4  -4  127.49    5.00
   3  -4   4  124.99    6.90
   3   4   4  149.99    5.30
   3   4   4  147.59    5.40
  -3   4  -4  153.28    5.40
   4  -4   4  425.56   16.40
  -4  -4  -4  437.36   15.70
  -4  -4  -4  431.56   15.40
  -4  -4  -4  447.06   15.20
   4  -4   4  467.75   15.70
   4  -4   4  437.66   16.10
  -4  -4  -4  442.16   15.30
   4  -4   4  437.06   17.70
  -4  -4  -4  443.26   15.50
  -4  -4  -4  421.36   15.20
   4  -4   4  421.16   15.60
   4  -4   4  432.76   15.00
  -4   4  -4  503.15   17.50
  -4   4  -4  504.15   17.10
  -4   4  -4  494.75   17.00
   4   4   4  496.35   17.10
   4   4   4  502.15   17.20
  -4   4  -4  513.75   17.30
  -4   4  -4  508.75   17.20
   4   4   4  508.95   17.10
   5  -4   4  357.86   16.20
  -5  -4  -4  287.67   12.20
  -5  -4  -4  324.77   12.20
   5  -4   4  314.27   11.90
   5  -4   4  333.27   13.60
  -5  -4  -4  348.77   12.60
  -5   4  -4  412.56   13.70
   5   4   4  381.26   13.00
   5   4   4  343.37   12.50
   5   4   4  355.16   12.40
  -5   4  -4  347.47   12.40
  -5   4  -4  356.26   12.60
  -5   4  -4  352.06   12.60
  -5   4  -4  354.96   12.40
   6  -4   4   49.80    2.10
  -6  -4  -4   47.50    2.30
  -6  -4  -4   50.39    2.40
   6  -4   4   48.50    2.90
  -6  -4  -4   49.50    2.30
   6  -4   4   50.29    2.50
  -6  -4  -4   49.40    2.30
   6  -4   4   46.50    3.50
  -6  -4  -4   48.10    2.50
   6   4   4   58.19    2.30
   6   4   4   56.09    2.30
   6   4   4   55.59    2.20
  -6   4  -4   57.09    2.30
  -6   4  -4   55.79    2.30
  -6   4  -4   54.99    2.40
  -6   4  -4   57.79    2.20
  -6   4  -4   57.59    2.50
   6   4   4   57.69    2.40
   7  -4   4  117.39    4.50
  -7  -4  -4  113.19    4.60
  -7  -4  -4  115.39    4.30
   7  -4   4  111.29    5.60
   7  -4   4  115.79    4.20
   7  -4   4  113.89    5.00
  -7  -4  -4  116.79    4.30
  -7  -4  -4  114.29    4.40
  -7   4  -4  133.59    5.00
  -7   4  -4  133.19    5.00
  -7   4  -4  134.49    4.60
   7   4   4  131.69    4.90
   7   4   4  133.49    4.60
   7   4   4  141.09    5.10
   7   4   4  125.89    5.10
  -7   4  -4  130.49    4.70
  -7   4  -4  128.09    5.00
  -8  -4  -4   29.90    1.30
  -8  -4  -4   32.10    1.30
  -8  -4  -4   28.70    1.50
   8  -4   4   31.90    2.00
   8  -4   4   28.60    1.90
  -8  -4  -4   28.20    1.70
   8  -4   4   29.90    1.30
   8   4   4   32.40    1.70
   8   4   4   33.90    1.50
   8   4   4   35.90    1.70
   8   4   4   35.20    1.30
  -8   4  -4   33.40    1.50
  -8   4  -4   34.40    1.30
   9  -5  -4   22.40    2.30
   9  -5  -4   20.80    2.50
  -9  -5   4   21.00    1.30
  -9  -5   4   22.80    1.00
   9  -5  -4   21.80    1.50
   9  -5  -4   21.40    1.20
  -9   5   4   25.70    1.10
  -9   5   4   22.00    1.10
   9   5  -4   24.90    1.10
   9   5  -4   25.90    1.50
   9   5  -4   24.10    1.00
  -9   5   4   27.90    1.30
   8  -5  -4   74.09    3.30
  -8  -5   4   75.59    3.30
  -8  -5   4   76.29    2.90
   8  -5  -4   80.49    4.10
  -8  -5   4   75.89    3.10
  -8  -5   4   72.79    2.80
  -8  -5   4   76.89    3.20
   8  -5  -4   75.59    3.60
   8  -5  -4   73.59    3.20
  -8   5   4   84.99    3.10
   8   5  -4   80.29    3.00
  -8   5   4   85.19    3.00
  -8   5   4   87.69    3.10
   8   5  -4   87.79    3.30
  -8   5   4   81.09    3.20
   8   5  -4   83.19    3.10
  -8   5   4   86.09    3.20
   8   5  -4   82.39    3.20
   7  -5  -4   35.40    2.30
   7  -5  -4   35.60    2.70
   7  -5  -4   37.10    2.40
  -7  -5   4   34.60    2.00
  -7  -5   4   38.20    2.00
  -7  -5   4   38.50    1.60
  -7  -5   4   33.50    1.90
   7   5  -4   41.20    1.80
  -7   5   4   43.00    1.70
  -7   5   4   42.30    1.80
   7   5  -4   41.90    1.70
  -7   5   4   37.90    1.80
  -7   5   4   41.50    1.60
   6  -5  -4   42.90    3.00
  -6  -5   4   44.50    2.40
  -6  -5   4   45.40    2.00
  -6  -5   4   45.40    2.30
   6  -5  -4   43.30    2.60
  -6  -5   4   44.60    1.90
  -6  -5   4   44.70    2.40
  -6  -5   4   46.10    2.00
   6  -5  -4   45.30    3.10
   6  -5  -4   43.00    2.40
   6   5  -4   48.90    2.00
  -6   5   4   45.90    2.10
  -6   5   4   51.79    1.90
   6   5  -4   50.39    1.90
  -6   5   4   48.00    1.90
   6   5  -4   47.70    2.00
  -6   5   4   52.89    2.00
  -6   5   4   51.99    2.10
   5  -5  -4  186.58    6.60
  -5  -5   4  154.18    6.70
   5  -5  -4  164.58    7.60
  -5  -5   4  168.38    6.30
  -5  -5   4  187.28    7.10
  -5  -5   4  172.28    6.30
  -5  -5   4  165.28    6.30
  -5  -5   4  171.58    6.60
   5  -5  -4  152.18    7.10
   5  -5  -4  174.18    7.30
   5  -5  -4  171.28    8.80
  -5   5   4  190.88    6.60
  -5   5   4  188.48    6.50
   5   5  -4  185.58    6.50
  -5   5   4  185.58    6.60
   5   5  -4  180.38    6.40
   4  -5  -4  401.86   13.30
  -4  -5   4  376.16   13.30
   4  -5  -4  353.96   13.30
   4  -5  -4  394.96   13.10
  -4  -5   4  369.16   13.30
  -4  -5   4  340.67   13.70
   4  -5  -4  358.56   13.60
  -4  -5   4  364.56   12.70
   4  -5  -4  371.76   13.40
   4  -5  -4  350.26   14.10
  -4  -5   4  364.36   14.00
   4  -5  -4  358.86   13.80
  -4  -5   4  375.66   12.80
  -4  -5   4  368.56   12.70
  -4  -5   4  365.06   13.10
   4   5  -4  401.16   13.80
  -4   5   4  410.26   13.90
  -4   5   4  403.06   13.80
  -4   5   4  412.16   13.80
   4   5  -4  409.16   13.70
  -3  -5   4  479.95   17.70
  -3  -5   4  523.95   17.80
   3  -5  -4  488.05   18.60
   3  -5  -4  505.85   17.90
   3  -5  -4  549.05   17.90
   3  -5  -4  498.65   18.00
  -3  -5   4  500.05   17.10
   3  -5  -4  525.75   17.60
  -3  -5   4  489.05   17.40
  -3  -5   4  502.45   17.10
  -3  -5   4  509.35   17.60
   3  -5  -4  488.85   17.80
   3  -5  -4  506.25   18.40
  -3  -5   4  477.35   18.40
  -3  -5   4  495.95   17.20
  -3  -5   4  502.95   18.50
  -3   5   4  547.35   18.70
  -3   5   4  558.14   18.70
  -3   5   4  560.94   18.60
   3   5  -4  556.74   18.60
   3   5  -4  549.05   18.70
   2  -5  -4  241.18    9.50
   2  -5  -4  235.18    9.10
  -2  -5   4  226.98    9.70
   2  -5  -4  234.08    9.60
   2  -5  -4  253.47    9.10
  -2  -5   4  248.88    8.40
   2  -5  -4  234.28    9.10
  -2  -5   4  225.68   10.00
   2  -5  -4  234.98    9.00
  -2  -5   4  240.78    8.30
  -2  -5   4  236.68    8.90
  -2  -5   4  238.88    8.80
  -2  -5   4  243.98    9.70
   2  -5  -4  234.08    8.90
  -2  -5   4  243.28    8.90
  -2  -5   4  236.98    8.70
   2  -5  -4  230.58    9.10
  -2   5   4  268.27    9.70
   2   5  -4  265.87    9.00
   2   5  -4  261.77    9.10
  -2   5   4  260.87    9.00
  -2   5   4  266.87    9.00
   1  -5  -4  186.68    7.50
   1  -5  -4  189.48    7.30
   1  -5  -4  200.88    7.50
  -1  -5   4  177.38    8.60
  -1  -5   4  190.28    7.40
  -1  -5   4  187.08    8.00
  -1  -5   4  186.88    7.00
  -1  -5   4  187.18    7.20
  -1  -5   4  183.98    8.20
   1  -5  -4  188.58    7.90
   1  -5  -4  193.78    7.80
   1  -5  -4  188.68    7.40
  -1  -5   4  194.88    6.70
  -1  -5   4  189.08    7.20
   1  -5  -4  189.48    7.50
  -1   5   4  215.08    8.30
   1   5  -4  209.88    7.20
  -1   5   4  211.38    7.20
   1   5  -4  209.18    7.30
  -1   5   4  206.68    7.20
   0  -5  -4  235.78    8.70
   0  -5   4  239.88    8.80
   0  -5  -4  237.98    8.80
   0  -5   4  231.38    8.70
   0  -5  -4  222.08    8.60
   0  -5   4  236.48    8.70
   0  -5   4  230.98    9.90
   0  -5  -4  237.18    9.20
   0  -5  -4  261.27    9.00
   0  -5  -4  256.47    9.40
   0  -5   4  232.08    9.50
   0  -5   4  223.18   10.30
   0  -5  -4  248.08    8.40
   0  -5  -4  231.68    9.40
   0  -5   4  229.78    8.60
   0  -5  -4  232.88    8.90
   0  -5  -4  235.48    9.10
   0   5   4  257.37    8.80
   0   5  -4  263.07    9.00
   0   5  -4  261.87    8.80
   0   5   4  252.47    8.70
   0   5  -4  248.98    9.20
  -1  -5  -4   93.59    3.70
   1  -5   4   95.99    4.10
  -1  -5  -4   95.09    4.10
   1  -5   4   91.89    5.50
  -1  -5  -4   95.19    3.90
  -1  -5  -4   98.69    4.00
   1  -5   4   89.19    4.50
   1  -5   4   93.29    4.30
   1  -5   4   96.29    3.80
   1  -5   4   91.19    3.90
   1  -5   4   95.49    5.00
  -1  -5  -4   94.89    4.40
  -1  -5  -4   94.19    4.00
  -1  -5  -4   93.29    4.20
  -1  -5  -4   94.49    4.30
  -1   5  -4  104.79    4.00
   1   5   4  104.89    3.70
  -1   5  -4  109.49    4.00
  -1   5  -4  107.29    3.90
   1   5   4  106.29    3.80
   2  -5   4  194.78    7.50
   2  -5   4  208.38    8.90
  -2  -5  -4  226.08    7.70
   2  -5   4  214.88    7.90
  -2  -5  -4  211.38    7.80
  -2  -5  -4  204.28    7.50
  -2  -5  -4  212.68    8.20
   2  -5   4  199.08    8.20
  -2  -5  -4  209.98    8.10
  -2  -5  -4  208.38    7.80
  -2  -5  -4  204.88    7.90
  -2  -5  -4  209.48    7.70
   2  -5   4  205.18    7.50
   2  -5   4  197.58    8.20
   2  -5   4  196.28    9.50
  -2   5  -4  215.28    8.50
  -2   5  -4  235.38    8.10
   2   5   4  233.88    7.90
  -2   5  -4  231.28    8.10
  -3  -5  -4  259.17   10.80
  -3  -5  -4  319.67   10.60
   3  -5   4  288.47   10.90
  -3  -5  -4  278.37   10.10
   3  -5   4  261.27   12.20
  -3  -5  -4  290.67   10.30
   3  -5   4  274.37   10.70
  -3  -5  -4  282.57   10.40
  -3  -5  -4  280.77   10.50
  -3  -5  -4  319.27   11.00
   3  -5   4  293.47   10.50
   3  -5   4  278.87   11.30
  -3   5  -4  307.47   11.30
  -3   5  -4  327.27   11.20
  -3   5  -4  356.66   11.90
  -3   5  -4  316.07   11.00
   3   5   4  310.07   11.20
  -3   5  -4  323.87   11.10
   3   5   4  323.57   11.00
  -4  -5  -4  196.38    7.10
  -4  -5  -4  183.18    6.90
   4  -5   4  192.78    7.70
   4  -5   4  187.58    7.80
   4  -5   4  187.98    7.20
  -4  -5  -4  191.08    6.90
  -4  -5  -4  186.68    7.30
  -4  -5  -4  190.58    7.00
   4  -5   4  184.98    8.80
   4  -5   4  194.48    7.30
  -4  -5  -4  182.88    7.10
  -4   5  -4  204.68    7.60
   4   5   4  217.88    7.40
  -4   5  -4  219.68    7.60
  -4   5  -4  217.98    7.50
  -4   5  -4  208.78    7.40
  -4   5  -4  211.28    7.30
   4   5   4  206.28    7.40
   5  -5   4   50.99    2.50
   5  -5   4   48.80    2.80
   5  -5   4   52.59    2.40
  -5  -5  -4   48.30    2.40
  -5  -5  -4   60.39    2.90
   5  -5   4   60.09    4.60
   5  -5   4   49.20    2.90
  -5  -5  -4   49.80    2.20
  -5   5  -4   54.89    2.10
  -5   5  -4   54.89    2.20
   5   5   4   52.89    2.20
   5   5   4   54.69    2.30
  -5   5  -4   53.19    2.10
  -5   5  -4   52.79    2.30
   5   5   4   54.39    2.10
  -5   5  -4   51.99    2.30
  -6  -5  -4   13.20    1.10
  -6  -5  -4   12.50    0.80
   6  -5   4   12.90    1.60
   6  -5   4   12.90    1.20
  -6  -5  -4   12.90    0.90
   6  -5   4   11.80    1.00
  -6  -5  -4   11.60    0.80
  -6  -5  -4   12.70    1.00
  -6   5  -4   14.60    0.70
   6   5   4   13.20    0.80
  -6   5  -4   13.50    0.80
   6   5   4   14.60    0.70
   6   5   4   14.10    0.90
  -6   5  -4   13.50    0.70
  -6   5  -4   13.20    0.90
  -6   5  -4   13.00    0.70
   7  -5   4   21.70    1.60
  -7  -5  -4   24.20    1.10
   7  -5   4   23.90    1.40
  -7  -5  -4   24.20    1.10
  -7  -5  -4   25.10    1.10
  -7   5  -4   24.20    1.10
  -7   5  -4   26.70    1.00
   7   5   4   26.70    1.00
   7   5   4   26.60    1.10
  -7   5  -4   26.10    1.20
   8  -6  -4   60.69    2.80
  -8  -6   4   60.69    2.50
  -8  -6   4   60.39    2.40
  -8   6   4   71.59    2.60
   7  -6  -4    2.40    0.50
   7  -6  -4    1.60    0.50
  -7  -6   4    1.90    0.30
   7  -6  -4    2.60    0.80
  -7  -6   4    2.20    0.50
  -7  -6   4    2.50    0.30
  -7  -6   4    2.10    0.50
  -7  -6   4    1.50    0.50
  -7   6   4    1.90    0.50
  -7   6   4    1.90    0.30
  -7   6   4    2.10    0.20
   6  -6  -4   53.99    2.60
  -6  -6   4   58.29    2.50
  -6  -6   4   53.59    2.20
   6  -6  -4   57.89    3.10
  -6  -6   4   58.09    2.60
  -6  -6   4   57.99    2.20
   6  -6  -4   57.19    2.60
  -6  -6   4   57.59    2.50
  -6   6   4   62.59    2.20
  -6   6   4   60.79    2.20
  -6   6   4   58.69    2.30
  -6   6   4   63.79    2.30
   5  -6  -4    2.30    0.70
   5  -6  -4    2.70    0.60
  -5  -6   4    2.90    0.60
  -5  -6   4    2.00    0.40
   5  -6  -4    2.30    0.70
  -5  -6   4    2.70    0.90
   5  -6  -4    3.20    0.90
  -5  -6   4    2.00    0.70
  -5  -6   4    2.60    0.40
  -5  -6   4    3.10    0.60
  -5   6   4    2.80    0.30
  -5   6   4    3.20    0.30
  -5   6   4    2.70    0.40
  -5   6   4    1.90    0.30
   4  -6  -4   21.20    1.60
  -4  -6   4   22.60    1.30
   4  -6  -4   22.30    1.80
  -4  -6   4   20.50    1.10
  -4  -6   4   21.30    1.60
  -4  -6   4   17.50    1.90
   4  -6  -4   19.80    2.30
  -4  -6   4   21.30    1.60
   4  -6  -4   24.20    2.00
  -4  -6   4   24.30    1.60
  -4   6   4   20.70    1.60
  -4   6   4   23.20    1.00
  -4   6   4   23.10    1.00
   3  -6  -4   82.09    3.80
   3  -6  -4   99.19    3.80
  -3  -6   4   82.09    3.50
   3  -6  -4   81.59    4.20
   3  -6  -4   97.49    3.60
  -3  -6   4   83.09    3.60
  -3  -6   4   84.49    4.20
  -3  -6   4   83.39    3.70
   3  -6  -4   86.89    4.00
  -3  -6   4   80.99    4.10
   3  -6  -4   80.69    3.60
  -3  -6   4   86.59    3.20
   3  -6  -4   83.89    3.80
  -3   6   4   86.79    3.10
  -3   6   4   88.29    3.20
  -3   6   4   87.79    3.30
  -2  -6   4   51.89    3.10
  -2  -6   4   51.19    2.50
   2  -6  -4   51.79    2.70
   2  -6  -4   57.69    2.50
   2  -6  -4   57.79    3.00
   2  -6  -4   51.89    2.60
  -2  -6   4   50.39    2.40
   2  -6  -4   52.09    3.00
  -2  -6   4   51.89    3.00
  -2  -6   4   48.50    3.10
  -2  -6   4   49.00    2.40
  -2  -6   4   53.29    2.60
   2  -6  -4   52.89    2.70
   2  -6  -4   61.39    2.70
   2   6  -4   53.39    3.20
   2   6  -4   53.69    2.10
  -2   6   4   49.80    1.90
  -2   6   4   52.79    2.00
   1  -6  -4  136.19    5.50
  -1  -6   4  133.49    5.90
   1  -6  -4  132.99    5.40
   1  -6  -4  129.09    5.70
  -1  -6   4  136.29    5.20
  -1  -6   4  128.79    6.20
  -1  -6   4  127.99    5.10
  -1  -6   4  129.29    5.00
   1  -6  -4  135.29    5.40
   1  -6  -4  136.89    5.20
  -1  -6   4  128.59    6.00
   1  -6  -4  141.09    5.70
  -1   6   4  135.89    4.60
   1   6  -4  135.89    4.80
   1   6  -4  130.99    4.90
   0  -6   4   22.30    1.30
   0  -6  -4   22.50    1.50
   0  -6   4   20.70    2.10
   0  -6  -4   22.00    1.70
   0  -6  -4   25.80    1.80
   0  -6  -4   22.40    1.50
   0  -6   4   22.20    1.80
   0  -6  -4   22.00    1.50
   0  -6   4   20.50    1.40
   0  -6  -4   21.90    1.40
   0  -6   4   22.70    1.30
   0  -6  -4   22.20    1.30
   0  -6   4   21.90    2.00
   0   6  -4   23.90    1.20
   0   6  -4   23.50    1.20
  -1  -6  -4   17.10    1.60
  -1  -6  -4   13.70    1.20
   1  -6   4   14.70    0.90
  -1  -6  -4   11.70    1.20
  -1  -6  -4   14.20    1.10
  -1  -6  -4   13.90    1.10
  -1  -6  -4   13.30    1.20
   1  -6   4   12.30    1.70
   1  -6   4   14.20    1.70
  -1  -6  -4   15.30    1.10
   1  -6   4   13.60    1.20
   1  -6   4   13.80    1.60
   1  -6   4   14.20    1.40
  -1   6  -4   13.30    0.80
  -1   6  -4   13.40    1.00
  -1   6  -4   13.90    0.70
   2  -6   4   12.10    1.10
   2  -6   4   11.30    2.20
  -2  -6  -4   12.00    1.00
  -2  -6  -4   12.40    0.90
  -2  -6  -4   11.20    1.20
   2  -6   4   12.00    1.20
  -2  -6  -4   15.10    1.30
  -2  -6  -4   12.00    0.80
  -2  -6  -4   15.80    1.60
  -2  -6  -4   11.20    1.00
   2  -6   4   12.10    1.00
   2  -6   4   13.50    1.60
   2  -6   4   11.10    0.80
  -2   6  -4   11.90    0.70
  -2   6  -4   13.30    0.70
  -2   6  -4   12.30    0.80
  -2   6  -4   10.90    0.80
  -3  -6  -4   10.60    0.80
   3  -6   4   10.30    1.00
   3  -6   4    9.80    1.20
   3  -6   4   10.30    1.00
  -3  -6  -4   10.30    1.00
   3  -6   4   11.20    1.00
  -3  -6  -4   11.10    0.80
  -3  -6  -4   10.50    0.90
   3  -6   4    9.40    1.50
  -3  -6  -4   10.40    0.90
  -3  -6  -4   10.10    0.80
  -3   6  -4   11.40    0.60
  -3   6  -4   10.70    0.70
  -3   6  -4   10.20    0.60
  -3   6  -4    9.90    0.70
  -4  -6  -4   14.30    1.00
  -4  -6  -4   14.10    1.00
   4  -6   4   14.10    0.90
  -4  -6  -4   14.70    0.90
   4  -6   4   17.10    1.40
   4  -6   4   14.00    1.20
  -4  -6  -4   11.90    1.10
   4  -6   4   13.90    1.10
  -4  -6  -4   14.30    1.10
   4  -6   4   13.60    1.60
  -4   6  -4   15.50    0.80
  -4   6  -4   15.10    1.10
  -4   6  -4   15.10    0.70
  -5  -6  -4   23.70    1.10
  -5  -6  -4   25.00    1.20
   5  -6   4   25.30    1.40
   5  -6   4   23.40    1.80
  -5  -6  -4   24.70    1.20
  -5  -6  -4   26.50    1.10
  -5   6  -4   31.40    1.50
  -5   6  -4   25.70    1.10
   4  -7  -4    3.70    0.50
  -4  -7   4    5.20    0.50
   4  -7  -4    3.80    0.60
  -4  -7   4    4.60    0.90
  -4  -7   4    5.50    0.70
   4  -7  -4    4.30    0.60
  -4  -7   4    5.30    0.50
   3  -7  -4    7.60    0.70
  -3  -7   4    8.00    0.80
   3  -7  -4    8.50    0.70
   3  -7  -4    7.90    0.60
   3  -7  -4    8.00    0.90
  -3  -7   4    7.90    0.60
  -3  -7   4    7.40    0.70
  -3  -7   4    7.30    0.80
   2  -7  -4   12.60    0.90
  -2  -7   4   13.20    0.80
   2  -7  -4   13.30    1.10
   2  -7  -4   13.20    0.90
   2  -7  -4   13.70    0.90
  -2  -7   4   13.70    0.90
  -2  -7   4   14.00    1.10
  -2  -7   4   13.80    1.10
  -2  -7   4   13.70    1.10
  -1  -7   4   35.10    2.00
  -1  -7   4   34.00    1.90
  -1  -7   4   32.90    1.50
   1  -7  -4   35.80    1.70
   1  -7  -4   33.80    1.70
  -1  -7   4   34.90    2.00
   1  -7  -4   34.10    1.80
  -1  -7   4   33.80    1.50
   1  -7  -4   36.00    1.60
   0  -7   4   40.10    2.30
   0  -7   4   40.10    2.20
   0  -7  -4   41.90    2.00
   0  -7  -4   40.30    1.80
   0  -7   4   41.90    2.10
   0  -7  -4   41.60    1.90
   0  -7   4   40.60    1.70
   0  -7  -4   41.30    1.80
   0  -7  -4   43.80    1.80
   1  -7   4   15.60    1.30
  -1  -7  -4   19.00    1.10
   1  -7   4   17.20    1.30
  -1  -7  -4   15.30    0.80
  -1  -7  -4   17.50    1.00
  -1  -7  -4   17.70    1.00
   1  -7   4   17.20    1.10
  -1  -7  -4   18.30    0.90
   1  -7   4   16.00    1.10
  -2  -7  -4   24.90    1.30
  -2  -7  -4   26.50    1.20
   2  -7   4   30.70    1.90
   2  -7   4   27.00    1.40
   2  -7   4   23.50    1.30
  -2  -7  -4   24.10    1.10
   2  -7   4   24.00    1.60
  -2  -7  -4   27.80    1.10
 -13   0   5   30.60    1.30
 -13   0   5   31.00    1.30
 -12   0   5   17.10    1.50
  12   0  -5   17.80    1.00
 -12   0   5   16.80    1.00
 -12   0   5   18.60    1.50
 -12   0   5   16.20    0.90
  12   0  -5   17.30    1.20
 -11   0   5    0.10    0.10
  11   0  -5    0.00    0.30
  11   0  -5    0.50    0.30
 -11   0   5    0.30    0.20
 -11   0   5    0.30    0.20
  10   0  -5   38.70    2.00
 -10   0   5   43.20    2.70
 -10   0   5   36.90    1.80
  10   0  -5   37.90    1.50
  10   0  -5   38.70    1.90
 -10   0   5   38.40    1.90
  -9   0   5   14.50    1.10
   9   0  -5   15.40    1.40
  -9   0   5   14.10    1.00
  -9   0   5   17.00    1.40
   9   0  -5   15.60    0.80
  -9   0   5   12.90    0.90
   9   0  -5  -15.80   19.50
   9   0  -5   12.90    1.70
   8   0  -5    0.20   14.50
   8   0  -5    2.70    1.60
  -8   0   5    0.50    1.70
   8   0  -5    4.30    0.60
   8   0  -5    5.50    1.90
  -8   0   5    3.90    1.20
   6   0  -5  384.76   13.40
   6   0  -5  396.56   14.10
   6   0  -5  378.06   13.30
  -6   0   5  390.46   13.90
   6   0  -5  396.96   14.30
  -6   0   5  397.56   14.40
  -6   0   5  402.16   13.80
   5   0  -5  211.38    8.10
   5   0  -5  206.68    7.60
  -5   0   5  227.18    8.20
  -5   0   5  208.08    7.70
   5   0  -5  218.78    8.00
   5   0  -5  198.28    7.20
  -4   0   5    3.70    0.80
   4   0  -5    4.40    0.90
  -4   0   5    3.60    0.60
  -4   0   5    3.30    0.70
   4   0  -5    4.40    0.70
  -4   0   5    3.70    0.50
   4   0  -5    4.10    1.00
  -3   0   5   18.00    1.30
   3   0  -5   17.60    1.10
  -3   0   5   18.30    0.90
  -3   0   5   16.40    1.40
  -3   0   5   19.00    1.20
   3   0  -5   18.70    1.30
  -2   0   5  363.06   12.60
  -2   0   5  382.76   13.00
  -2   0   5  376.26   13.10
   2   0  -5  365.66   12.70
   2   0  -5  369.56   13.00
  -2   0   5  360.76   12.70
   1   0  -5  561.94   19.10
  -1   0   5  591.24   19.40
  -1   0   5  545.55   19.10
   1   0  -5  563.94   19.40
  -1   0   5  558.64   19.00
   1   0  -5  554.94   19.20
   0   0   5   35.70    1.60
   0   0  -5   34.10    1.70
   0   0   5   33.70    1.80
   0   0   5   35.20    1.90
   0   0  -5   34.00    1.70
  -1   0  -5  871.21   29.80
   1   0   5  862.91   29.60
  -1   0  -5  886.91   29.70
   1   0   5  877.51   30.00
  -1   0  -5  890.91   29.80
   1   0   5  859.51   29.70
   2   0   5  402.26   13.80
  -2   0  -5  394.86   14.00
  -2   0  -5  395.06   14.50
  -2   0  -5  393.16   14.00
  -2   0  -5  387.86   14.00
  -2   0  -5  392.66   14.00
   2   0   5  391.46   13.90
   2   0   5  393.06   13.30
   2   0   5  400.26   14.00
   3   0   5  247.38    9.10
   3   0   5  244.68    8.50
  -3   0  -5  246.38    9.80
   3   0   5  254.97    9.40
   3   0   5  239.98    9.20
  -3   0  -5  254.57    9.30
  -3   0  -5  245.88    9.20
  -3   0  -5  254.27    9.40
   4   0   5  244.78    9.30
  -4   0  -5  244.48    9.30
   4   0   5  244.38    8.50
  -4   0  -5  248.38    9.50
   4   0   5  239.68    9.10
   4   0   5  247.88    9.50
   6   0   5    6.40    0.60
   6   0   5  -10.50   20.20
   6   0   5    5.50    1.10
   6   0   5    6.60    1.10
  -6   0  -5    8.40    1.20
  -6   0  -5    5.90    1.00
  -6   0  -5    8.40    1.30
   7   0   5    0.30    1.20
  -7   0  -5    2.80    0.80
   7   0   5    2.00    0.60
   7   0   5    1.00    0.40
  -7   0  -5    1.80    0.60
   7   0   5    1.40    0.40
   8   0   5  483.05   17.20
  -8   0  -5  451.15   15.90
  -8   0  -5  423.16   16.40
   8   0   5  502.15   16.80
   8   0   5  451.35   15.90
  -8   0  -5  454.75   16.00
  -9   0  -5    0.40    0.20
  -9   0  -5    0.10    0.20
   9   0   5    0.90    0.30
  -9   0  -5    0.40    0.10
 -10   0  -5   25.30    1.30
 -10   0  -5   26.40    1.20
 -10   0  -5   24.90    1.10
  10   0   5   22.60    1.10
 -10   0  -5   24.00    1.10
 -13  -1   5  125.69    4.50
  13  -1  -5  135.69    4.90
 -13  -1   5  131.29    4.60
 -13   1   5  126.69    4.60
 -13   1   5  133.59    4.60
  13   1  -5  131.09    4.60
  12  -1  -5   36.50    1.90
 -12  -1   5   33.10    1.50
  12  -1  -5   33.70    1.50
 -12  -1   5   32.60    1.40
  12  -1  -5   32.80    2.40
 -12  -1   5   31.40    2.20
 -12   1   5   32.90    1.50
  12   1  -5   34.20    1.60
  12   1  -5   36.60    1.40
 -12   1   5   32.10    1.50
 -12   1   5   31.40    1.90
 -11  -1   5   33.30    1.90
 -11  -1   5   36.40    1.70
  11  -1  -5   34.60    2.20
 -11  -1   5   37.20    1.60
  11  -1  -5   33.90    1.80
 -11  -1   5   40.00    2.50
  11  -1  -5   33.50    1.70
 -11  -1   5   35.90    2.10
  11   1  -5   37.70    1.50
  11   1  -5  -10.50   27.30
  11   1  -5   38.40    1.80
 -11   1   5   34.80    1.90
 -11   1   5   33.30    2.60
 -11   1   5   37.30    1.70
  11   1  -5   37.40    1.60
 -11   1   5   37.10    1.80
  10  -1  -5   36.40    2.40
 -10  -1   5   36.60    1.90
  10  -1  -5   43.90    2.50
 -10  -1   5   38.60    2.10
 -10  -1   5   38.00    1.90
 -10   1   5   37.50    2.30
  10   1  -5   37.80    2.00
 -10   1   5   38.20    2.10
  10   1  -5   36.90    1.80
  10   1  -5   40.70    1.90
  10   1  -5   38.70    1.60
 -10   1   5   38.80    2.30
 -10   1   5   40.20    2.30
  -9  -1   5   63.19    2.90
  -9  -1   5   63.09    2.80
  -9  -1   5   56.29    2.90
   9   1  -5   53.99    2.30
   9   1  -5   56.99    2.30
   9   1  -5   56.79    2.30
   9   1  -5   55.99    2.70
  -9   1   5   57.19    3.00
   9   1  -5   54.99    2.40
  -9   1   5   66.89    3.00
  -8  -1   5   59.09    2.80
   8  -1  -5   54.19    3.90
  -8  -1   5   63.89    4.30
   8   1  -5   55.19    3.80
   8   1  -5   60.59    2.40
   8   1  -5   58.69    2.40
   8   1  -5   55.29    3.50
   8   1  -5   57.99    2.30
  -8   1   5   58.79    3.00
  -7  -1   5   54.19    3.50
   7  -1  -5   56.59    3.30
  -7  -1   5   55.79    2.60
   7  -1  -5   50.79    3.50
  -7  -1   5   53.19    3.40
   7   1  -5   55.49    2.20
   7   1  -5   59.19    3.20
   7   1  -5   55.69    2.20
  -7   1   5   54.29    2.70
   7   1  -5   52.39    3.10
  -7   1   5   54.99    3.20
   7   1  -5   53.39    3.40
  -7   1   5   56.99    2.90
   6  -1  -5  134.69    5.90
  -6  -1   5  144.09    5.90
  -6  -1   5  127.29    5.20
   6  -1  -5  133.89    5.70
  -6  -1   5  132.39    6.00
  -6  -1   5  135.89    5.20
  -6   1   5  135.39    5.70
   6   1  -5  134.09    5.50
  -6   1   5  131.39    5.30
  -6   1   5  132.69    5.30
  -6   1   5  136.79    4.70
   6   1  -5  127.29    5.50
  -6   1   5  132.19    4.60
   6   1  -5  130.59    4.80
  -6   1   5  133.59    4.90
   6   1  -5  130.99    5.40
   6   1  -5  129.89    4.70
  -5  -1   5  239.08    8.80
  -5  -1   5  245.98    9.00
  -5  -1   5  233.18    9.10
   5  -1  -5  246.08    9.00
   5  -1  -5  239.88    9.20
  -5  -1   5  233.48    9.20
  -5  -1   5  228.38    8.50
   5   1  -5  226.98    8.50
   5   1  -5  236.78    8.70
  -5   1   5  239.98    8.30
  -5   1   5  236.98    8.60
  -5   1   5  235.48    8.00
  -5   1   5  238.08    8.80
   5   1  -5  230.98    8.60
  -5   1   5  228.18    7.90
   5   1  -5  232.08    8.00
   5   1  -5  229.18    8.10
   4  -1  -5   56.99    3.00
  -4  -1   5   58.99    2.80
  -4  -1   5   54.89    2.80
  -4  -1   5   54.29    2.40
   4   1  -5   57.39    2.70
  -4   1   5   55.19    2.40
  -4   1   5   61.39    2.80
  -4   1   5   60.19    2.10
   4   1  -5   59.19    2.70
   4   1  -5   54.09    2.10
   4   1  -5   62.99    2.70
  -3  -1   5  670.93   22.70
   3  -1  -5  661.93   22.70
  -3  -1   5  665.73   22.70
  -3  -1   5  623.64   22.20
  -3   1   5  674.03   22.60
   3   1  -5  651.83   22.50
  -3   1   5  677.33   22.70
   3   1  -5  661.63   22.60
  -3   1   5  645.04   22.30
  -2  -1   5  272.07    9.90
  -2  -1   5  265.77    9.70
  -2  -1   5  259.37    9.40
   2  -1  -5  280.97    9.90
   2   1  -5  272.27    9.60
  -2   1   5  267.97    9.50
   2   1  -5  264.17    9.40
  -2   1   5  271.77    9.50
  -2   1   5  261.37    9.30
  -1  -1   5  356.66   12.40
  -1  -1   5  356.76   12.60
  -1  -1   5  372.16   13.00
   1  -1  -5  348.37   12.80
   1  -1  -5  353.26   12.30
  -1   1   5  354.06   12.30
   1   1  -5  356.26   12.70
   1   1  -5  364.56   12.50
   1   1  -5  352.66   12.50
  -1   1   5  362.96   12.50
   0  -1   5  520.75   18.40
   0  -1   5  535.35   18.70
   0  -1  -5  525.35   18.30
   0  -1  -5  549.54   19.30
   0  -1  -5  538.95   18.70
   0  -1   5  531.35   18.90
   0  -1   5  538.15   18.40
   0   1   5  542.75   18.50
   0   1  -5  540.65   18.50
   0   1   5  519.65   18.20
   0   1   5  560.34   18.10
   0   1  -5  526.05   18.70
   1  -1   5   84.19    3.60
  -1  -1  -5   88.59    3.60
   1  -1   5   82.89    3.60
  -1  -1  -5   84.19    3.60
  -1  -1  -5   85.59    4.30
   1   1   5   85.59    3.60
  -1   1  -5   88.39    3.80
   1   1   5   83.89    3.10
  -1   1  -5   89.89    3.90
  -1   1  -5   85.29    3.10
   1   1   5   84.59    3.30
   1   1   5   87.69    3.80
  -2  -1  -5 1173.48   39.60
  -2  -1  -5 1198.18   39.80
  -2  -1  -5 1180.78   40.70
   2  -1   5 1111.39   39.60
   2  -1   5 1181.08   39.70
  -2  -1  -5 1178.88   40.10
   2   1   5 1206.08   39.00
  -2   1  -5 1136.69   39.80
  -2   1  -5 1178.28   39.80
   2   1   5 1165.78   39.10
  -2   1  -5 1207.08   40.00
   2   1   5 1198.68   39.90
  -2   1  -5 1182.58   39.70
  -2   1  -5 1131.09   39.60
   2   1   5 1134.69   39.40
  -2   1  -5 1147.69   39.10
  -2   1  -5 1181.38   39.10
  -2   1  -5 1163.18   40.10
  -3  -1  -5  188.58    7.20
  -3  -1  -5  197.18    7.60
   3  -1   5  187.88    7.30
  -3  -1  -5  190.48    7.40
   3  -1   5  192.68    7.40
  -3  -1  -5  186.98    8.30
  -3   1  -5  189.38    6.60
  -3   1  -5  199.48    6.80
  -3   1  -5  191.78    7.60
  -3   1  -5  188.28    7.30
  -3   1  -5  186.68    7.40
   3   1   5  177.78    7.30
   3   1   5  187.88    7.10
   3   1   5  195.58    6.70
  -3   1  -5  196.38    7.50
   3   1   5  192.28    7.60
   3   1   5  186.78    6.60
   4  -1   5  181.68    7.20
  -4  -1  -5  182.18    7.10
  -4  -1  -5  183.48    7.50
  -4  -1  -5  179.28    8.30
  -4  -1  -5  187.88    7.60
  -4   1  -5  182.38    7.70
  -4   1  -5  180.18    7.20
   4   1   5  181.48    6.80
   4   1   5  181.68    7.60
   4   1   5  177.68    6.90
  -4   1  -5  183.28    7.40
   4   1   5  184.98    7.30
   4   1   5  179.08    7.70
  -4   1  -5  185.68    7.30
   4   1   5  182.88    6.40
   4   1   5  186.58    6.50
   5  -1   5    4.70    1.00
  -5  -1  -5    9.10    2.70
  -5  -1  -5    5.40    1.00
  -5  -1  -5    2.00    2.10
  -5   1  -5    4.30    2.00
  -5   1  -5    3.10    1.60
  -5   1  -5    4.50    0.90
   5   1   5    6.10    0.60
   5   1   5    7.80    2.20
   5   1   5    4.30    1.20
   5   1   5    5.60    0.60
   5   1   5   10.20    3.10
   6  -1   5   60.69    3.20
   6  -1   5   58.49    3.10
  -6  -1  -5   55.69    2.60
   6  -1   5   60.09    2.90
  -6  -1  -5   53.99    2.50
   6  -1   5   65.29    3.60
  -6  -1  -5   57.59    3.00
  -6   1  -5   57.29    3.20
  -6   1  -5   55.99    2.70
   6   1   5   60.69    2.40
   6   1   5   60.19    2.50
   6   1   5   59.19    2.70
   6   1   5   59.49    2.50
   6   1   5   58.49    3.20
   6   1   5   61.99    2.30
  -7  -1  -5    9.40    1.10
  -7  -1  -5    8.50    1.70
   7  -1   5    8.30    1.20
  -7   1  -5    8.70    1.20
   7   1   5    9.50    0.80
   7   1   5    8.60    1.50
   7   1   5   10.40    0.70
   7   1   5    9.50    1.00
  -8  -1  -5   51.79    2.30
  -8  -1  -5   50.69    2.20
  -8  -1  -5   51.29    2.60
   8  -1   5   62.29    3.40
   8  -1   5   49.10    2.80
  -8   1  -5   60.39    2.70
   8   1   5   21.30   23.60
   8   1   5   51.59    2.30
   8   1   5   52.49    2.10
  -8   1  -5   51.59    2.50
  -8   1  -5   63.89    3.60
   8   1   5   55.59    3.70
  -8   1  -5   56.29    2.60
   8   1   5   53.59    2.40
  -9  -1  -5   38.10    1.60
   9  -1   5   37.70    1.60
   9  -1   5   40.40    1.90
  -9  -1  -5   36.50    1.70
  -9  -1  -5   36.10    2.30
  -9  -1  -5   35.40    1.60
  -9   1  -5   35.70    2.10
  -9   1  -5   38.80    1.70
  -9   1  -5   38.70    1.80
   9   1   5   38.30    1.50
   9   1   5   39.20    1.70
  10  -1   5   13.90    0.90
 -10  -1  -5   15.20    0.80
 -10  -1  -5   16.50    0.90
 -10  -1  -5   13.80    0.70
 -10  -1  -5   13.30    0.90
  10   1   5   15.90    1.00
 -10   1  -5   18.20    1.00
 -10   1  -5   16.60    0.80
 -10   1  -5   16.90    0.80
  12  -2  -5    5.00    1.00
  12  -2  -5    3.20    0.50
 -12  -2   5    3.10    0.30
 -12  -2   5    3.60    0.50
 -12  -2   5    3.70    0.40
  12   2  -5    3.30    0.90
 -12   2   5    4.30    0.40
 -12   2   5    2.80    0.50
  12   2  -5    3.00    0.70
 -12   2   5    2.70    0.50
  12   2  -5    4.30    0.40
 -11  -2   5    4.70    0.70
  11  -2  -5    4.90    0.60
  11  -2  -5    6.20    1.10
 -11  -2   5    5.90    0.50
 -11  -2   5    5.60    0.50
 -11  -2   5    4.50    0.80
  11   2  -5    5.10    0.60
  11   2  -5    5.50    0.40
 -11   2   5    3.90    0.60
 -11   2   5    5.80    0.50
  11   2  -5    4.80    0.70
  11   2  -5    5.60    0.60
 -11   2   5    5.80    0.80
 -11   2   5    4.40    1.10
  11   2  -5    4.40    0.70
 -10  -2   5   72.09    3.30
 -10  -2   5   76.29    2.90
 -10  -2   5   71.39    3.30
 -10  -2   5   75.29    2.90
  10  -2  -5   72.39    3.00
  10   2  -5   80.99    3.20
  10   2  -5   81.79    2.90
 -10   2   5   79.59    2.80
 -10   2   5   77.49    3.70
  10   2  -5   81.09    3.10
  10   2  -5   80.99    3.30
  10   2  -5   80.69    3.10
 -10   2   5   77.99    3.10
 -10   2   5   80.59    3.30
 -10   2   5   75.69    3.20
  -9  -2   5    5.30    0.90
  -9  -2   5    6.50    0.80
  -9  -2   5    5.80    0.60
   9  -2  -5    8.10    0.80
   9  -2  -5    7.60    1.30
  -9  -2   5    4.50    1.00
  -9  -2   5    6.20    1.20
  -9  -2   5    4.80    0.70
  -9  -2   5    6.50    0.70
  -9   2   5    7.60    0.50
  -9   2   5    7.90    0.70
   9   2  -5    7.20    0.70
   9   2  -5    7.30    0.60
   9   2  -5    7.30    0.70
  -9   2   5    7.30    0.40
  -9   2   5    6.20    1.10
   9   2  -5    7.70    0.80
   9   2  -5    7.30    0.70
  -9   2   5   -7.50   12.10
  -8  -2   5   90.59    3.50
  -8  -2   5   96.69    3.80
  -8  -2   5   90.09    3.60
   8  -2  -5   88.59    3.60
   8   2  -5  103.79    4.10
   8   2  -5  102.69    3.70
   8   2  -5  102.39    3.90
  -8   2   5  100.89    3.50
   8   2  -5  104.29    4.70
  -8   2   5   99.79    3.70
   8   2  -5   98.29    3.80
  -8   2   5   94.39    4.50
  -8   2   5   97.99    3.90
  -8   2   5  101.59    3.70
   7  -2  -5   31.00    3.30
  -7  -2   5   33.70    1.90
  -7  -2   5   33.30    3.20
  -7  -2   5   31.50    1.70
  -7   2   5   33.40    2.60
   7   2  -5   34.70    4.30
   7   2  -5   37.30    2.80
  -7   2   5   31.20    2.40
   7   2  -5   33.10    2.70
   7   2  -5   34.70    1.50
  -7   2   5   34.60    1.40
  -7   2   5   34.90    1.50
   7   2  -5   33.70    1.50
  -7   2   5   35.00    1.40
   7   2  -5   35.20    1.60
  -6  -2   5  482.05   16.90
   6  -2  -5  509.75   17.80
  -6  -2   5  487.35   18.20
  -6  -2   5  476.65   16.80
   6   2  -5  506.25   18.10
  -6   2   5  509.25   17.20
   6   2  -5  512.65   18.10
   6   2  -5  508.25   17.10
   6   2  -5  501.25   17.30
  -6   2   5  513.35   17.10
  -6   2   5  512.75   18.10
   6   2  -5  507.75   18.10
  -6   2   5  495.45   18.20
  -6   2   5  514.25   17.10
  -6   2   5  507.45   17.90
   5  -2  -5  326.77   11.90
  -5  -2   5  311.47   11.20
  -5  -2   5  308.37   11.10
  -5  -2   5  332.57   12.40
   5   2  -5  321.57   11.10
  -5   2   5  318.87   11.00
  -5   2   5  323.87   11.90
   5   2  -5  325.97   19.90
  -5   2   5  326.57   11.80
   5   2  -5  326.67   11.80
  -5   2   5  327.37   11.00
   5   2  -5  324.47   11.80
   5   2  -5  321.57   11.00
  -4  -2   5   28.20    3.00
   4  -2  -5   35.40    2.40
  -4  -2   5   34.30    1.70
  -4  -2   5   38.40    1.70
  -4  -2   5   36.00    2.50
  -4   2   5   32.80    2.00
   4   2  -5   32.40    1.90
  -4   2   5   32.80    1.30
  -4   2   5   34.10    1.90
  -4   2   5   32.50    1.30
   4   2  -5   31.60    1.30
   4   2  -5   33.40    2.00
   3   2  -5  247.58    8.80
  -3   2   5  235.28    8.10
  -3   2   5  249.18    8.80
  -3   2   5  239.58    8.20
   3   2  -5  233.68    8.20
  -3   2   5  244.28    8.80
   3   2  -5  242.68    8.70
   3   2  -5  236.88    8.30
  -2  -2   5  362.96   13.30
  -2  -2   5  356.36   13.10
   2  -2  -5  403.16   15.10
  -2  -2   5  425.36   15.50
  -2  -2   5  377.36   13.80
   2  -2  -5  360.76   13.30
   2   2  -5  390.36   13.20
   2   2  -5  377.96   13.00
  -2   2   5  369.46   12.90
   2   2  -5  371.56   13.60
   2   2  -5  363.06   12.60
  -2   2   5  370.46   12.50
  -2   2   5  373.26   13.00
  -2   2   5  373.96   13.10
  -1  -2   5  299.27   10.70
  -1  -2   5  284.37   10.60
   1  -2  -5  307.47   11.70
   1  -2  -5  291.07   10.40
  -1  -2   5  291.07   10.90
   1  -2  -5  301.77   10.70
  -1   2   5  293.97   10.10
  -1   2   5  302.87   10.40
   1   2  -5  335.17   10.70
   1   2  -5  298.07   11.20
  -1   2   5  288.17   10.40
   1   2  -5  296.47   10.50
   1   2  -5  289.17   10.10
  -1   2   5  292.47   10.60
   1   2  -5  306.97   10.70
   0  -2  -5  756.82   26.30
   0  -2   5  706.23   24.80
   0  -2   5  744.93   25.10
   0  -2   5  721.03   25.20
   0  -2  -5  733.93   25.20
   0  -2  -5  703.33   25.50
   0   2  -5  750.52   25.00
   0   2  -5  755.92   25.50
   0   2  -5  753.12   26.00
   0   2   5  732.83   24.80
   0   2   5  746.93   24.90
   0   2   5  750.02   25.30
   0   2  -5  737.23   24.90
   0   2   5  727.73   25.10
   1  -2   5  292.07   10.50
   1  -2   5  294.07   10.80
  -1  -2  -5  296.17   10.90
  -1  -2  -5  295.07   10.80
  -1  -2  -5  291.27   10.40
   1  -2   5  298.57   10.80
  -1  -2  -5  291.67   11.80
   1   2   5  296.97   10.60
  -1   2  -5  303.47   10.20
  -1   2  -5  300.17   10.30
   1   2   5  293.37   10.40
   1   2   5  300.67   11.20
  -1   2  -5  296.87   11.00
   1   2   5  297.17   10.10
  -1   2  -5  296.97   11.30
  -1   2  -5  308.27   10.80
  -2  -2  -5   29.40    2.80
   2  -2   5   23.60    1.80
  -2  -2  -5   28.10    2.10
  -2  -2  -5   29.30    1.60
   2  -2   5   30.30    1.70
   2  -2   5   29.30    1.90
   2   2   5   30.20    2.20
   2   2   5   30.10    1.30
  -2   2  -5   28.90    1.30
   2   2   5   31.60    1.20
  -2   2  -5   26.90    1.90
  -2   2  -5   28.20    2.00
  -2   2  -5   29.40    1.90
  -2   2  -5   28.80    2.20
  -2   2  -5   27.20    2.40
   2   2   5   27.30    1.80
  -2   2  -5   30.00    1.40
   3  -2   5  230.28    8.60
  -3  -2  -5  230.98    9.30
  -3  -2  -5  238.88    8.60
   3  -2   5  237.98    8.80
  -3  -2  -5  234.68   10.30
   3   2   5  232.18    8.70
  -3   2  -5  239.58    9.70
  -3   2  -5  238.78    8.40
   3   2   5  248.58    8.30
  -3   2  -5  241.08    9.20
  -3   2  -5  245.48    8.40
   3   2   5  252.37    9.60
  -3   2  -5  245.28    8.50
  -3   2  -5  234.28    9.00
   3   2   5  243.78    8.50
   3   2   5  235.18    8.80
  -3   2  -5  239.98    9.30
   4  -2   5  277.17   10.30
  -4  -2  -5  272.27   10.10
  -4  -2  -5  267.77   10.90
   4  -2   5  278.97   10.40
  -4  -2  -5  310.27   14.80
  -4   2  -5  286.97    9.80
  -4   2  -5  286.27    9.80
   4   2   5  287.77    9.70
   4   2   5  289.87    9.90
  -4   2  -5  282.37   10.90
   4   2   5  286.17   11.20
  -4   2  -5  285.17    9.90
   4   2   5  285.87   11.40
   4   2   5  286.57    9.80
  -4   2  -5  241.28   11.50
  -4   2  -5  285.27   10.80
  -4   2  -5  282.87   11.30
   5  -2   5  281.27   10.50
   5  -2   5  314.97   10.70
   5  -2   5  282.47   10.40
  -5  -2  -5  287.27   10.30
  -5  -2  -5  292.37   13.10
  -5  -2  -5  301.77   10.70
  -5  -2  -5  292.57   10.40
  -5  -2  -5  298.77   10.70
   5  -2   5  301.07   11.10
  -5   2  -5  313.17   10.80
  -5   2  -5  310.47   11.00
   5   2   5  313.17   11.50
   5   2   5  338.37   11.70
  -5   2  -5  311.77   12.00
  -5   2  -5  316.97   11.30
   5   2   5  317.27   10.90
   6  -2   5  124.79    4.90
   6  -2   5  124.09    4.80
  -6  -2  -5  120.89    4.90
   6  -2   5  130.89    5.50
  -6  -2  -5  123.89    5.00
  -6  -2  -5  126.49    4.80
  -6  -2  -5  136.49    5.10
  -6  -2  -5  126.89    4.80
   6   2   5  138.39    5.20
   6   2   5  133.39    4.90
   6   2   5  139.19    5.00
   6   2   5  140.89    5.10
  -6   2  -5  136.49    6.00
   6   2   5  137.29    5.30
  -6   2  -5  141.39    5.30
  -6   2  -5  133.69    4.80
   7  -2   5   45.00    2.20
  -7  -2  -5   45.80    2.20
  -7  -2  -5   46.50    2.50
   7  -2   5   50.39    2.90
  -7  -2  -5   48.70    2.10
  -7  -2  -5   49.00    2.20
  -7  -2  -5   48.40    2.20
   7   2   5   53.29    2.10
  -7   2  -5   50.09    2.40
  -7   2  -5   47.70    2.40
  -7   2  -5   49.90    2.30
   7   2   5   51.59    2.30
   7   2   5   51.09    2.00
   7   2   5   50.69    2.40
  -7   2  -5   50.19    2.90
  -8  -2  -5    1.80    0.50
  -8  -2  -5    1.90    0.40
  -8  -2  -5    1.80    0.40
  -8  -2  -5    1.90    0.70
   8  -2   5    1.40    0.50
  -8   2  -5    1.00    0.30
   8   2   5    2.80    0.60
  -8   2  -5    1.30    0.40
   8   2   5    1.80    0.50
   8   2   5    2.10    0.60
  -8   2  -5    1.20    0.30
   8   2   5    1.70    0.40
  -9  -2  -5   41.30    1.50
   9  -2   5   40.10    1.70
  -9  -2  -5   40.80    1.60
  -9  -2  -5   38.10    1.70
  -9  -2  -5   37.50    1.80
   9  -2   5   33.70    2.40
   9   2   5   46.40    2.00
  -9   2  -5   44.40    1.70
   9   2   5   40.70    2.00
  -9   2  -5   44.20    1.90
  -9   2  -5   40.80    2.10
   9   2   5   45.70    1.60
  12  -3  -5   32.20    1.80
  12  -3  -5   35.10    1.40
  12   3  -5   35.90    1.80
 -12   3   5   37.00    1.60
  12   3  -5   35.60    1.40
  12   3  -5   38.60    1.40
  11  -3  -5   15.00    0.90
 -11  -3   5   12.40    0.60
  11  -3  -5   13.20    1.40
 -11  -3   5   13.40    0.60
  11  -3  -5   16.30    1.50
  11  -3  -5   15.00    1.30
 -11  -3   5   13.00    1.00
 -11  -3   5   15.20    1.00
  11   3  -5   17.20    1.00
  11   3  -5   19.00    1.30
  11   3  -5   16.80    0.80
 -11   3   5   17.70    0.90
  11   3  -5   15.00    1.00
  11   3  -5   17.10    0.90
  10  -3  -5   26.70    1.90
 -10  -3   5   23.90    1.60
  10  -3  -5   25.70    2.20
 -10  -3   5   23.50    1.70
 -10  -3   5   26.20    1.20
  10  -3  -5   26.70    1.30
 -10  -3   5   24.60    1.30
 -10   3   5   29.00    1.40
  10   3  -5   27.90    1.30
 -10   3   5   25.60    1.20
 -10   3   5   27.70    1.20
  10   3  -5   29.30    1.40
  10   3  -5   30.30    1.40
  10   3  -5   28.60    1.20
  -9  -3   5   18.80    1.40
  -9  -3   5   19.70    1.00
   9  -3  -5   19.70    1.20
  -9  -3   5   19.80    1.10
   9  -3  -5   19.70    1.70
  -9  -3   5   19.20    1.00
  -9  -3   5   18.40    1.50
  -9  -3   5   18.40    1.50
  -9   3   5   22.00    1.20
  -9   3   5   22.30    0.90
   9   3  -5   21.80    1.20
   9   3  -5   21.50    1.00
  -9   3   5   22.60    1.10
   9   3  -5   23.50    1.10
   9   3  -5   24.60    1.50
   9   3  -5   21.90    1.30
  -9   3   5   19.10    1.50
  -9   3   5   22.00    1.00
  -9   3   5   20.10    1.80
  -9   3   5   22.30    1.10
  -8  -3   5    7.40    1.00
   8  -3  -5    7.60    1.30
  -8  -3   5    6.70    0.60
   8  -3  -5    5.80    0.70
  -8  -3   5    5.90    0.60
  -8  -3   5    7.00    0.70
  -8  -3   5    5.70    1.10
  -8  -3   5    4.10    1.10
  -8   3   5    7.70    0.70
   8   3  -5    7.70    0.90
   8   3  -5    7.70    0.60
  -8   3   5    7.00    0.50
  -8   3   5    7.40    0.50
  -8   3   5    7.40    0.60
   8   3  -5    7.20    0.60
   8   3  -5    7.90    0.70
   8   3  -5    7.10    0.70
  -8   3   5    7.20    0.60
  -7  -3   5  151.58    5.80
   7  -3  -5  159.18    6.50
  -7  -3   5  139.89    5.50
  -7  -3   5  152.38    6.00
  -7  -3   5  141.29    5.40
  -7  -3   5  148.99    5.40
   7  -3  -5  141.89    5.40
  -7  -3   5  142.19    5.70
  -7   3   5  159.48    6.00
  -7   3   5  156.98    6.10
   7   3  -5  169.78    5.80
   7   3  -5  178.18    6.30
  -7   3   5  160.78    5.70
  -7   3   5  158.78    5.70
  -6  -3   5  167.58    9.50
   6  -3  -5  154.38    6.60
  -6  -3   5  157.68    6.00
   6   3  -5  191.28    8.20
  -6   3   5  159.78    7.10
  -6   3   5  163.88    5.80
   6   3  -5  150.68    6.90
  -6   3   5  167.38    5.80
   6   3  -5  160.48    5.80
   6   3  -5  171.28    5.80
  -6   3   5  169.28    5.70
   6   3  -5  168.58    5.90
  -6   3   5  138.89    8.10
   5  -3  -5  458.65   17.20
  -5  -3   5  452.45   16.50
  -5  -3   5  532.75   19.40
   5   3  -5  495.05   16.80
  -5   3   5  473.25   17.00
   5   3  -5  497.45   16.70
  -5   3   5  487.45   16.60
   5   3  -5  462.05   16.70
   5   3  -5  534.55   18.80
   5   3  -5  478.85   17.80
  -5   3   5  561.14   19.60
  -5   3   5  498.65   16.80
  -5   3   5  471.15   17.80
  -4  -3   5    1.60    0.60
   4  -3  -5   -1.30    1.50
  -4   3   5    4.30    1.20
   4   3  -5    5.20    1.40
  -4   3   5    4.20    1.30
   4   3  -5    3.90    0.40
   4   3  -5    3.00    0.40
   4   3  -5    4.50    1.10
  -4   3   5    3.70    0.30
  -4   3   5    3.60    0.40
   3   3  -5  548.65   19.00
  -3   3   5  576.04   18.60
  -3   3   5  544.65   19.20
  -3   3   5  527.95   19.10
  -3   3   5  541.15   18.40
   3   3  -5  581.34   18.60
   3   3  -5  537.25   19.20
   3   3  -5  535.35   19.90
   3   3  -5  529.65   18.40
  -2   3   5  309.47   10.70
  -2   3   5  318.17   11.50
   2   3  -5  311.07   10.80
   2   3  -5  307.17   11.20
  -2   3   5  322.37   11.20
   2   3  -5  327.37   12.20
  -2   3   5  307.97   10.70
   2   3  -5  327.67   11.50
   2   3  -5  320.27   10.70
  -1  -3   5    5.10    1.50
  -1  -3   5    5.20    0.70
   1  -3  -5    5.80    1.90
   1  -3  -5    6.70    1.50
   1   3  -5    7.00    0.40
   1   3  -5    5.70    0.50
   1   3  -5    6.00    1.10
   1   3  -5    5.60    1.40
   1   3  -5    5.10    0.80
  -1   3   5    6.00    0.40
  -1   3   5    5.70    0.40
  -1   3   5    6.60    1.10
  -1   3   5    5.80    0.70
   0  -3  -5  203.48    8.10
   0  -3   5  199.08    7.30
   0  -3  -5  203.78    9.40
   0  -3   5  198.88    8.20
   0   3   5  201.28    7.30
   0   3   5  241.88    8.80
   0   3  -5  211.08    8.00
   0   3  -5  228.38    9.30
   0   3  -5  210.88    7.40
   0   3   5  203.78    7.60
   0   3  -5  216.08    7.30
   0   3  -5  198.18    7.80
   0   3   5  207.28    7.20
   1  -3   5  101.19    4.10
   1  -3   5   96.69    4.00
   1  -3   5   95.89    4.70
  -1  -3  -5   98.99    4.90
  -1  -3  -5  104.69    5.90
  -1   3  -5  101.49    4.70
   1   3   5  104.09    5.00
   1   3   5  105.89    3.70
  -1   3  -5  100.89    5.50
  -1   3  -5  106.19    5.10
   1   3   5  106.89    4.10
  -1   3  -5  107.39    3.80
   1   3   5  108.19    3.80
  -1   3  -5  106.89    3.90
  -1   3  -5  100.09    4.30
  -2  -3  -5  192.98   12.30
   2  -3   5  220.88    7.90
  -2   3  -5  256.77   11.60
  -2   3  -5  220.08    8.70
   2   3   5  231.38    7.70
   2   3   5  229.88    7.80
   2   3   5  216.28    8.10
  -2   3  -5  226.18    7.90
  -2   3  -5  231.08    7.80
   2   3   5  210.48    7.90
   2   3   5  206.38   11.20
   3  -3   5   34.00    2.00
   3  -3   5   34.50    2.00
  -3  -3  -5   43.70    5.40
   3   3   5   30.70    4.40
  -3   3  -5   38.10    1.70
  -3   3  -5   27.50    3.50
   3   3   5   39.90    1.60
  -3   3  -5   37.00    1.70
  -3   3  -5   33.60    2.80
   3   3   5   39.40    1.60
  -3   3  -5   38.60    1.60
  -3   3  -5   41.90    4.60
   3   3   5   37.40    1.60
  -4  -3  -5  210.38    7.80
  -4  -3  -5  209.18    7.90
  -4  -3  -5  204.58    7.40
   4  -3   5  217.08    7.90
  -4  -3  -5  211.28    7.50
  -4  -3  -5  197.58    8.10
   4  -3   5  204.58    7.50
  -4  -3  -5  210.58    7.70
   4  -3   5  203.08    7.60
   4  -3   5  216.58    8.00
  -4   3  -5  236.78    8.90
  -4   3  -5  233.68    8.70
  -4   3  -5  237.88    8.40
   4   3   5  236.28    8.30
  -4   3  -5  242.28    8.50
  -4   3  -5  232.88    8.30
   4   3   5  263.67    9.10
   5  -3   5  316.77   11.20
   5  -3   5  326.47   11.70
  -5  -3  -5  318.57   11.00
   5  -3   5  326.67   11.50
  -5  -3  -5  293.57   11.50
  -5  -3  -5  318.57   11.00
  -5  -3  -5  320.77   11.50
   5  -3   5  321.37   11.20
  -5  -3  -5  317.37   11.30
  -5  -3  -5  315.77   11.30
  -5   3  -5  354.86   12.50
   5   3   5  340.57   12.40
   5   3   5  357.16   12.20
  -5   3  -5  344.67   12.10
   5   3   5  342.17   12.00
  -5   3  -5  359.36   12.20
   5   3   5  357.96   12.30
  -5   3  -5  358.56   13.40
  -5   3  -5  351.36   12.00
  -5   3  -5  354.56   12.30
  -6  -3  -5  387.16   13.50
   6  -3   5  384.66   13.40
  -6  -3  -5  382.76   13.60
  -6  -3  -5  389.76   13.20
  -6  -3  -5  388.46   13.20
  -6  -3  -5  387.86   13.50
   6  -3   5  397.16   13.90
   6  -3   5  359.06   13.70
   6   3   5  443.16   14.80
   6   3   5  444.36   14.90
  -6   3  -5  426.66   14.70
  -6   3  -5  425.96   15.90
   6   3   5  423.76   14.60
  -6   3  -5  411.16   14.80
  -6   3  -5  426.16   14.50
   6   3   5  426.46   15.00
  -6   3  -5  428.16   15.00
   6   3   5  442.96   14.70
  -7  -3  -5    1.30    0.50
  -7  -3  -5    3.10    0.60
  -7  -3  -5    1.80    0.40
   7  -3   5    1.90    0.50
  -7  -3  -5    1.80    0.60
  -7   3  -5    2.50    0.50
   7   3   5    2.10    0.50
  -7   3  -5    2.40    0.40
   7   3   5    2.10    0.50
  -7   3  -5    4.60    1.40
   7   3   5    2.80    0.60
  -8  -3  -5   21.60    1.10
   8  -3   5   22.20    1.10
  -8  -3  -5   21.60    1.10
  -8  -3  -5   21.40    1.30
   8  -3   5   20.10    1.50
   8  -3   5   22.20    2.30
   8   3   5   26.10    1.10
   8   3   5   25.20    1.40
  -8   3  -5   24.70    1.20
   8   3   5   24.80    1.20
  -9  -3  -5  113.19    4.10
   9  -3   5  115.49    4.10
   9  -3   5  116.39    4.80
   9   3   5  133.89    4.70
   9   3   5  135.99    4.90
   9   3   5  139.79    4.90
  -9   3  -5  144.89    4.90
 -11  -4   5   10.60    0.70
  11  -4  -5    9.90    1.00
  11  -4  -5   10.60    0.60
  11  -4  -5    9.70    0.90
  11   4  -5   11.90    0.50
 -11   4   5   12.20    0.70
 -11   4   5   11.60    0.50
  11   4  -5   12.00    0.60
  10  -4  -5    3.70    1.00
 -10  -4   5    4.30    0.60
  10  -4  -5    5.00    0.90
 -10  -4   5    4.20    0.70
  10  -4  -5    4.20    0.50
  10  -4  -5    5.00    1.00
  10   4  -5    5.10    0.60
  10   4  -5    5.60    0.40
  10   4  -5    4.90    0.50
  10   4  -5    5.60    0.60
 -10   4   5    5.40    0.60
 -10   4   5    5.40    0.30
 -10   4   5    6.10    0.50
  10   4  -5    4.80    0.50
  -9  -4   5   11.80    1.10
   9  -4  -5   11.90    1.10
   9  -4  -5   10.30    2.30
   9  -4  -5   12.30    1.30
  -9  -4   5   12.20    1.10
   9  -4  -5   11.30    1.20
  -9  -4   5   11.70    0.80
  -9   4   5   13.20    1.20
  -9   4   5   13.10    0.80
   9   4  -5   13.60    0.80
   9   4  -5   13.70    0.70
  -9   4   5   15.90    1.10
   9   4  -5   12.70    0.90
  -9   4   5   13.80    0.80
   9   4  -5   14.20    0.90
   9   4  -5   13.10    0.90
  -9   4   5   11.10    1.50
  -9   4   5   12.40    0.80
  -8  -4   5   63.09    2.90
   8  -4  -5   62.99    3.80
   8  -4  -5   64.99    3.50
  -8  -4   5   64.89    3.00
   8  -4  -5   62.69    3.30
  -8  -4   5   61.29    3.00
  -8  -4   5   66.19    2.60
   8  -4  -5   62.99    2.60
  -8   4   5   72.09    2.60
   8   4  -5   68.59    2.70
  -8   4   5   71.89    2.70
   8   4  -5   74.79    2.80
   8   4  -5   71.99    2.80
  -8   4   5   74.39    2.80
  -8   4   5   70.79    2.90
  -8   4   5   72.79    2.70
   8   4  -5   73.19    2.90
  -7  -4   5   89.99    3.40
  -7  -4   5   86.79    3.80
   7  -4  -5   87.19    4.30
  -7  -4   5   84.09    3.90
   7  -4  -5   87.99    4.70
   7  -4  -5   84.09    3.40
  -7  -4   5   87.59    4.00
   7  -4  -5   87.69    4.30
  -7  -4   5   87.49    3.40
  -7   4   5  100.09    3.60
  -7   4   5   96.99    3.50
  -7   4   5   94.69    3.80
  -7   4   5  101.19    3.70
   7   4  -5   96.79    3.70
   7   4  -5   99.29    3.60
   7   4  -5  100.09    3.80
  -7   4   5   99.49    3.60
   6  -4  -5   79.69    4.40
  -6  -4   5   73.59    3.50
   6  -4  -5   77.89    4.00
  -6  -4   5   72.99    4.10
   6  -4  -5   75.49    3.00
  -6  -4   5   80.19    3.10
  -6  -4   5   76.29    3.40
  -6  -4   5   73.39    3.00
  -6  -4   5   79.19    3.70
   6  -4  -5   75.79    3.90
  -6  -4   5   77.99    3.00
  -6   4   5   85.19    3.20
  -6   4   5   91.59    3.30
  -6   4   5   88.09    3.30
  -6   4   5   90.89    3.30
   6   4  -5   90.39    3.40
   6   4  -5   87.29    3.30
  -6   4   5   84.99    3.50
   6   4  -5   90.49    3.30
  -5  -4   5  163.38    6.70
  -5  -4   5  173.08    6.10
  -5  -4   5  175.28    6.40
  -5  -4   5  167.68    7.40
  -5  -4   5  162.28    6.10
  -5  -4   5  176.48    6.80
  -5  -4   5  164.18    6.20
   5  -4  -5  176.78    7.10
   5  -4  -5  167.28    7.00
   5  -4  -5  168.08    7.50
  -5  -4   5  168.18    6.50
   5  -4  -5  157.08    6.00
   5  -4  -5  176.28    7.00
   5   4  -5  199.08    6.80
  -5   4   5  195.08    7.20
   5   4  -5  195.58    7.00
   5   4  -5  190.28    6.90
  -5   4   5  197.48    6.80
  -4  -4   5  475.15   16.60
  -4  -4   5  482.65   18.70
   4   4  -5  498.35   17.30
  -4   4   5  528.85   17.20
  -4   4   5  515.15   17.30
   4   4  -5  504.25   18.40
  -4   4   5  508.55   17.20
   4   4  -5  513.25   17.30
  -4   4   5  514.15   18.50
   4   4  -5  497.95   19.30
   3   4  -5  107.69    3.90
   3   4  -5  119.19    7.10
  -3   4   5  107.99    5.00
  -3   4   5  102.69    3.90
   3   4  -5  109.59    4.50
   3   4  -5  101.59    5.20
  -3   4   5  110.19    4.50
  -3   4   5  108.49    3.80
  -3   4   5  110.89    3.90
   3   4  -5  109.69    4.00
   2  -4  -5   60.99    4.80
  -2  -4   5   55.59    2.60
  -2  -4   5   55.29    4.10
   2   4  -5   58.19    2.80
   2   4  -5   60.79    2.30
  -2   4   5   60.89    2.30
   2   4  -5   57.29    2.50
   2   4  -5   60.99    2.20
  -2   4   5   60.99    2.20
  -2   4   5   51.59    2.40
   2   4  -5   60.79    3.40
   2   4  -5   64.59    4.10
  -2   4   5   61.59    2.70
   1  -4  -5  104.69    6.30
  -1  -4   5   93.59    5.30
  -1  -4   5   95.19    4.00
  -1   4   5  104.99    3.60
   1   4  -5  106.69    3.70
   1   4  -5  103.19    3.80
   1   4  -5  105.79    5.50
  -1   4   5  103.39    4.20
   1   4  -5  101.39    4.80
  -1   4   5  104.29    3.70
   1   4  -5   97.19    6.00
   0  -4  -5   87.39    8.00
   0  -4  -5   72.99    4.40
   0  -4   5   73.89    5.10
   0  -4   5   69.59    3.30
   0   4   5   86.49    5.20
   0   4   5   75.39    2.80
   0   4  -5   68.79    6.30
   0   4  -5   68.79    3.90
   0   4  -5   75.99    2.90
   0   4  -5   76.59    2.80
   0   4   5   74.69    2.70
   0   4  -5   74.59    2.90
   0   4   5   76.19    3.20
  -1  -4  -5    5.30    2.50
   1  -4   5    6.00    0.90
  -1  -4  -5    7.60    2.30
   1   4   5    7.30    1.00
   1   4   5    7.90    2.00
  -1   4  -5    7.10    2.20
  -1   4  -5    6.70    0.60
  -1   4  -5    4.60    1.80
  -1   4  -5    6.30    0.60
  -1   4  -5    7.40    2.10
   1   4   5    6.00    0.50
  -1   4  -5    7.10    0.50
  -2  -4  -5  300.57   11.10
  -2  -4  -5  307.57   11.50
   2  -4   5  299.47   13.10
  -2  -4  -5  301.97   11.20
   2  -4   5  307.67   10.80
  -2  -4  -5  308.47   10.80
  -2  -4  -5  350.76   11.00
   2  -4   5  320.17   11.20
   2  -4   5  266.77   11.70
  -2  -4  -5  308.77   11.30
   2  -4   5  282.57   11.50
   2  -4   5  301.87   10.60
   2  -4   5  305.07   10.70
  -2  -4  -5  308.87   11.20
  -2  -4  -5  312.47   11.10
   2  -4   5  313.17   12.40
   2   4   5  355.66   12.50
  -2   4  -5  355.16   12.00
   2   4   5  339.47   11.90
  -2   4  -5  358.26   13.00
   2   4   5  346.17   11.90
  -2   4  -5  328.07   12.00
  -2   4  -5  365.96   12.30
  -3  -4  -5  279.97   10.30
   3  -4   5  276.07    9.80
  -3  -4  -5  276.97   10.50
   3  -4   5  262.77   10.40
  -3  -4  -5  285.37   10.20
  -3  -4  -5  320.47   10.40
  -3  -4  -5  274.17   10.00
  -3  -4  -5  278.27   10.00
   3  -4   5  288.87   10.30
   3  -4   5  277.27   10.70
   3  -4   5  266.67   12.20
   3  -4   5  276.77    9.80
   3  -4   5  272.17   11.30
  -3  -4  -5  268.87   10.20
  -3   4  -5  327.47   11.20
   3   4   5  317.67   11.00
  -3   4  -5  314.67   11.10
  -3   4  -5  310.27   10.90
  -3   4  -5  305.47   11.30
   3   4   5  328.57   11.00
   3   4   5  324.67   10.90
  -3   4  -5  324.17   11.00
  -4  -4  -5  213.08    7.70
   4  -4   5  219.78    7.90
  -4  -4  -5  208.58    7.90
   4  -4   5  210.88    9.00
  -4  -4  -5  211.78    7.80
   4  -4   5  196.38    9.80
  -4  -4  -5  216.88    8.20
   4  -4   5  227.18    8.80
   4  -4   5  208.68    7.50
  -4  -4  -5  181.48    7.90
  -4  -4  -5  202.58    8.00
  -4   4  -5  250.57    8.60
  -4   4  -5  244.08    8.70
  -4   4  -5  245.88    8.50
  -4   4  -5  244.88    9.00
  -4   4  -5  246.58    8.80
   4   4   5  251.27    8.60
   4   4   5  244.68    8.70
   4   4   5  243.08    8.60
  -5  -4  -5    5.30    0.90
   5  -4   5    6.40    0.90
   5  -4   5    5.30    1.70
  -5  -4  -5    7.20    0.80
   5  -4   5    6.60    1.10
   5  -4   5    6.40    0.70
  -5  -4  -5    7.90    0.90
   5  -4   5    5.40    1.20
  -5   4  -5    7.40    0.60
  -5   4  -5    7.30    0.70
   5   4   5    6.50    0.60
  -5   4  -5    6.70    0.80
   5   4   5    7.50    0.60
  -5   4  -5    6.50    0.50
   5   4   5    6.80    0.50
  -5   4  -5    7.40    0.60
   6  -4   5   57.29    4.40
  -6  -4  -5   66.99    2.70
  -6  -4  -5   68.39    3.00
   6  -4   5   64.19    3.20
   6  -4   5   60.19    2.60
   6  -4   5   57.49    3.40
  -6  -4  -5   65.19    2.70
   6   4   5   66.09    3.30
  -6   4  -5   77.49    3.20
  -6   4  -5   72.39    3.00
   6   4   5   75.69    3.10
   6   4   5   72.79    2.70
  -6   4  -5   68.99    3.10
   6   4   5   75.79    2.80
  -6   4  -5   83.79    3.00
   7  -4   5   57.99    2.30
   7  -4   5   54.79    3.70
  -7  -4  -5   57.59    2.70
  -7  -4  -5   59.79    2.40
   7  -4   5   57.69    2.80
   7   4   5   68.19    2.60
   7   4   5   65.29    2.60
  -7   4  -5   64.89    2.30
  -7   4  -5   63.79    2.40
  -7   4  -5   68.69    2.70
   7   4   5   62.89    2.50
   7   4   5   67.19    2.60
   8  -4   5   26.60    1.60
   8  -4   5   24.20    1.20
  -8  -4  -5   24.00    1.20
  -8  -4  -5   26.70    1.10
   8   4   5   30.10    1.10
   8   4   5   29.80    1.30
  -8   4  -5   29.70    1.30
   9  -5  -5   32.10    1.70
  -9  -5   5   33.20    1.60
  -9  -5   5   31.90    1.60
  -9  -5   5   34.60    1.70
   9  -5  -5   33.90    2.10
   9  -5  -5   31.70    2.10
   9   5  -5   34.90    1.40
   9   5  -5   36.90    1.50
  -9   5   5   37.40    1.40
  -9   5   5   36.20    1.50
  -9   5   5   37.10    1.40
  -8  -5   5   29.60    1.30
  -8  -5   5   29.40    1.60
   8  -5  -5   27.40    2.00
   8  -5  -5   29.60    1.80
   8  -5  -5   29.50    2.20
  -8  -5   5   30.40    1.60
  -8  -5   5   27.80    1.60
  -8  -5   5   32.50    1.30
  -8   5   5   32.70    1.50
  -8   5   5   34.40    1.40
   8   5  -5   33.20    1.40
   8   5  -5   34.20    1.40
  -8   5   5   32.90    1.50
  -8   5   5   34.60    1.40
  -8   5   5   34.90    1.30
   7  -5  -5   31.20    2.80
  -7  -5   5   31.70    1.80
  -7  -5   5   30.40    1.40
  -7  -5   5   30.20    2.10
  -7  -5   5   30.50    1.40
   7  -5  -5   28.60    2.10
   7  -5  -5   35.00    2.40
   7  -5  -5   30.30    1.70
  -7  -5   5   34.80    2.50
  -7   5   5   33.30    1.50
   7   5  -5   32.50    1.40
  -7   5   5   32.40    1.50
   7   5  -5   34.60    1.50
  -7   5   5   34.00    1.50
   7   5  -5   33.60    1.50
  -7   5   5   35.90    1.40
  -7   5   5   36.10    2.20
  -7   5   5   34.10    1.40
   6  -5  -5    7.40    0.90
   6  -5  -5    5.90    1.00
  -6  -5   5    6.70    0.60
  -6  -5   5    5.50    1.30
   6  -5  -5    5.70    1.30
  -6  -5   5    6.20    0.90
   6  -5  -5    6.00    1.30
  -6  -5   5    6.60    0.60
  -6  -5   5    7.50    1.00
  -6  -5   5    5.60    1.00
   6   5  -5    8.50    0.70
  -6   5   5    6.70    0.50
  -6   5   5    7.00    0.50
  -6   5   5    7.40    0.60
  -6   5   5    6.40    0.60
  -6   5   5    6.50    0.40
   6   5  -5    6.50    0.50
   6   5  -5    6.70    0.60
  -6   5   5    7.80    1.10
  -5  -5   5   42.20    1.80
   5  -5  -5   41.60    2.90
   5  -5  -5   42.60    2.60
   5  -5  -5   44.10    2.40
  -5  -5   5   40.90    2.30
   5  -5  -5   42.10    2.30
  -5  -5   5   43.10    2.50
  -5  -5   5   42.50    1.90
  -5  -5   5   42.40    2.20
  -5  -5   5   42.00    2.90
  -5   5   5   37.70    3.20
  -5   5   5   43.90    1.70
   5   5  -5   43.30    2.60
   5   5  -5   44.90    1.80
   5   5  -5   44.70    1.80
  -5   5   5   46.50    1.80
  -5   5   5   46.70    1.80
   5   5  -5   46.20    2.00
  -4  -5   5   30.20    2.00
  -4  -5   5   32.00    1.50
  -4  -5   5   33.00    1.50
   4  -5  -5   30.60    2.40
   4  -5  -5   31.90    2.20
  -4  -5   5   31.00    2.40
   4  -5  -5   32.40    2.10
   4  -5  -5   32.90    2.00
  -4  -5   5   30.60    2.50
  -4  -5   5   31.10    1.80
   4  -5  -5   34.40    2.30
  -4  -5   5   31.70    1.90
  -4  -5   5   31.70    1.70
  -4   5   5   37.20    1.50
  -4   5   5   37.10    1.60
   4   5  -5   33.40    2.10
  -4   5   5   38.30    1.50
   4   5  -5   37.30    1.90
  -4   5   5   39.10    2.20
   4   5  -5   36.20    1.60
   4   5  -5   36.00    1.50
  -3  -5   5  120.59    4.50
   3  -5  -5  121.49    5.30
   3  -5  -5  128.49    5.50
   3  -5  -5  121.59    5.70
  -3  -5   5  122.19    5.00
   3  -5  -5  119.39    5.30
  -3  -5   5  124.09    4.50
  -3  -5   5  119.39    4.90
  -3  -5   5  120.59    5.20
  -3  -5   5  119.89    5.80
   3  -5  -5  121.19    5.00
  -3  -5   5  115.69    5.70
  -3  -5   5  117.59    4.80
   3  -5  -5  142.89    5.20
   3  -5  -5  136.69    5.00
   3   5  -5  135.09    4.80
  -3   5   5  134.19    4.70
  -3   5   5  132.19    4.70
   3   5  -5  136.79    5.70
  -3   5   5  134.19    4.80
   3   5  -5  135.19    4.90
  -3   5   5  133.79    5.30
  -2  -5   5  357.96   12.90
  -2  -5   5  330.17   14.10
   2  -5  -5  377.96   13.40
  -2  -5   5  371.46   14.10
  -2  -5   5  362.06   13.10
   2  -5  -5  366.36   13.40
   2  -5  -5  396.76   13.70
  -2  -5   5  374.66   12.90
   2  -5  -5  363.16   13.80
  -2  -5   5  355.46   14.10
   2  -5  -5  362.66   13.40
   2  -5  -5  362.46   13.10
  -2  -5   5  365.66   13.00
  -2   5   5  407.86   14.40
  -2   5   5  410.06   13.80
   2   5  -5  420.36   13.80
   2   5  -5  415.66   14.00
   2   5  -5  403.86   13.90
  -2   5   5  411.46   13.80
  -2   5   5  388.46   13.80
  -1  -5   5  156.98    6.00
   1  -5  -5  156.38    6.10
   1  -5  -5  154.98    6.30
  -1  -5   5  145.39    7.30
  -1  -5   5  160.28    6.10
  -1  -5   5  154.28    7.20
   1  -5  -5  155.78    6.40
  -1  -5   5  159.38    5.90
   1  -5  -5  171.68    6.70
   1  -5  -5  158.88    6.50
  -1  -5   5  157.48    6.90
   1  -5  -5  150.58    6.60
  -1  -5   5  154.78    6.10
   1   5  -5  176.68    6.30
  -1   5   5  174.68    6.60
  -1   5   5  173.88    6.10
   1   5  -5  178.78    6.10
  -1   5   5  174.58    6.00
   1   5  -5  174.88    6.20
   0  -5   5   67.99    3.80
   0  -5  -5   69.69    3.50
   0  -5   5   71.69    4.20
   0  -5  -5   67.49    3.10
   0  -5   5   66.59    4.40
   0  -5   5   66.79    3.10
   0  -5   5   70.59    3.20
   0  -5  -5   70.99    3.20
   0  -5   5   72.89    3.00
   0  -5  -5   69.49    3.40
   0  -5  -5   71.39    3.60
   0  -5  -5   68.19    3.30
   0  -5  -5   71.69    3.10
   0   5  -5   81.49    3.10
   0   5  -5   80.29    3.10
   0   5   5   77.89    2.90
   0   5  -5   82.69    3.10
   0   5   5   78.19    2.90
  -1  -5  -5  344.77   12.40
  -1  -5  -5  372.76   12.30
   1  -5   5  354.06   12.10
   1  -5   5  323.87   14.20
   1  -5   5  326.37   12.30
   1  -5   5  354.76   13.80
  -1  -5  -5  344.77   12.40
  -1  -5  -5  347.87   12.80
  -1  -5  -5  352.86   12.50
  -1  -5  -5  337.77   12.60
   1  -5   5  340.27   13.00
   1  -5   5  354.06   12.40
  -1  -5  -5  346.07   12.90
  -1   5  -5  403.66   13.70
  -1   5  -5  397.46   13.70
   1   5   5  402.76   13.50
   1   5   5  393.56   13.50
  -1   5  -5  395.16   13.60
   2  -5   5  339.57   15.00
   2  -5   5  380.36   12.90
   2  -5   5  378.56   13.30
  -2  -5  -5  368.66   13.10
  -2  -5  -5  390.96   13.40
   2  -5   5  372.66   14.40
  -2  -5  -5  369.36   13.60
   2  -5   5  359.56   13.60
  -2  -5  -5  374.96   13.10
  -2  -5  -5  359.96   13.20
  -2  -5  -5  364.16   13.30
  -2  -5  -5  383.46   12.90
  -2   5  -5  419.66   14.40
  -2   5  -5  442.86   15.10
  -2   5  -5  406.76   14.30
   2   5   5  426.36   14.60
  -2   5  -5  420.86   14.50
   2   5   5  424.16   14.40
   2   5   5  418.46   14.30
   3  -5   5  110.69    6.30
   3  -5   5  116.39    5.00
  -3  -5  -5  117.69    4.80
   3  -5   5  119.19    5.60
  -3  -5  -5  126.19    4.60
  -3  -5  -5  116.79    4.80
  -3  -5  -5  119.39    4.60
  -3  -5  -5  117.79    4.70
  -3  -5  -5  120.29    5.10
   3  -5   5  124.29    4.90
   3  -5   5  123.69    5.20
   3   5   5  131.79    4.70
   3   5   5  132.19    4.80
  -3   5  -5  133.59    4.80
  -3   5  -5  134.69    4.70
   3   5   5  133.89    4.80
  -3   5  -5  135.89    4.90
  -3   5  -5  128.59    5.00
  -3   5  -5  138.19    5.00
  -4  -5  -5  143.99    5.40
   4  -5   5  140.39    5.90
   4  -5   5  139.99    6.10
  -4  -5  -5  141.59    5.60
   4  -5   5  144.09    5.50
   4  -5   5  138.59    5.40
  -4  -5  -5  143.29    5.20
  -4   5  -5  175.48    6.00
   4   5   5  158.68    6.10
  -4   5  -5  163.28    5.70
   4   5   5  155.18    5.70
  -4   5  -5  159.38    5.80
  -4   5  -5  151.68    5.80
  -4   5  -5  160.28    5.70
   4   5   5  156.58    5.60
  -5  -5  -5   17.10    1.10
  -5  -5  -5   16.80    1.00
   5  -5   5   15.90    1.50
  -5  -5  -5   15.70    1.00
  -5  -5  -5   17.00    1.00
  -5  -5  -5   17.00    1.10
   5  -5   5   17.20    1.20
   5  -5   5   17.90    1.30
   5  -5   5   15.90    1.90
   5   5   5   18.90    0.90
   5   5   5   18.10    1.10
  -5   5  -5   20.00    0.90
  -5   5  -5   19.80    1.00
  -5   5  -5   16.60    1.10
  -5   5  -5   22.80    1.30
   5   5   5   18.70    1.00
   5   5   5   18.90    0.90
  -5   5  -5   16.10    1.00
  -6  -5  -5    3.20    0.50
  -6  -5  -5    3.70    0.40
  -6  -5  -5    3.90    0.50
   6  -5   5    3.40    0.90
   6  -5   5    3.50    0.70
  -6  -5  -5    3.10    0.60
  -6   5  -5    3.70    0.40
   6   5   5    4.40    0.30
  -6   5  -5    4.00    0.30
  -6   5  -5    3.70    0.40
  -7  -6   5    1.50    0.40
   7  -6  -5    1.70    0.70
   7  -6  -5   -0.30    2.10
  -7  -6   5    0.90    0.40
   7  -6  -5    2.10    0.50
  -7  -6   5    1.20    0.50
  -7   6   5    1.30    0.20
  -7   6   5    1.30    0.20
   6  -6  -5   14.10    1.00
  -6  -6   5   14.50    1.10
  -6  -6   5   15.90    1.20
   6  -6  -5   14.40    1.10
   6  -6  -5   15.90    1.40
  -6  -6   5   16.00    1.00
  -6   6   5   18.10    0.80
  -6   6   5   16.60    1.00
   6   6  -5   18.90    1.10
  -6   6   5   17.90    0.70
  -5  -6   5   53.19    2.80
   5  -6  -5   50.79    2.60
  -5  -6   5   53.69    2.40
  -5  -6   5   54.79    2.40
   5  -6  -5   53.19    2.40
  -5  -6   5   54.69    2.50
   5  -6  -5   53.59    2.90
  -5   6   5   58.39    2.20
  -5   6   5   58.19    2.20
  -4  -6   5   14.00    1.00
  -4  -6   5   13.20    1.00
   4  -6  -5   13.00    1.00
   4  -6  -5   12.80    1.10
   4  -6  -5   13.30    1.30
  -4  -6   5   13.30    1.40
  -4  -6   5   13.60    1.30
  -4  -6   5   12.50    1.10
   4  -6  -5   12.60    1.20
   4  -6  -5   15.60    1.20
  -4   6   5   14.80    0.70
  -4   6   5   14.10    0.70
  -4   6   5   15.20    0.80
   3  -6  -5   19.30    1.30
  -3  -6   5   18.80    1.60
  -3  -6   5   17.60    1.70
  -3  -6   5   19.90    2.00
   3  -6  -5   21.40    1.50
   3  -6  -5   22.40    1.90
   3  -6  -5   16.70    1.40
  -3  -6   5   17.80    1.60
  -3   6   5   19.80    0.90
   3   6  -5   19.40    1.00
  -3   6   5   18.80    0.90
   3   6  -5   18.80    0.90
  -2  -6   5   40.80    2.60
   2  -6  -5   41.10    2.20
   2  -6  -5   40.10    2.10
  -2  -6   5   40.70    2.20
  -2  -6   5   40.10    1.90
  -2  -6   5   39.80    2.50
   2  -6  -5   33.20    2.20
  -2  -6   5   40.20    2.80
   2  -6  -5   37.40    2.70
  -2  -6   5   41.80    2.00
   2  -6  -5   41.90    2.90
   2  -6  -5   36.80    2.70
   2   6  -5   42.10    1.70
   2   6  -5   42.60    1.80
  -2   6   5   42.10    1.80
  -2   6   5   42.30    1.70
   1  -6  -5   46.70    3.10
   1  -6  -5   41.40    2.30
  -1  -6   5   43.00    2.90
  -1  -6   5   43.10    2.70
  -1  -6   5   41.70    2.10
   1  -6  -5   46.70    2.60
  -1  -6   5   43.10    3.60
   1  -6  -5   44.70    2.60
   1  -6  -5   43.10    2.40
   1   6  -5   45.30    1.80
  -1   6   5   45.50    1.80
   1   6  -5   45.50    1.90
   0  -6  -5   45.70    2.40
   0  -6   5   34.80    2.20
   0  -6  -5   49.00    3.20
   0  -6  -5   47.60    3.30
   0  -6  -5   39.00    1.90
   0  -6   5   38.50    2.00
   0  -6   5   37.40    1.90
   0  -6   5   46.90    3.70
   0  -6  -5   45.60    2.80
   0   6  -5   41.70    1.70
   0   6  -5   39.70    1.70
   0   6   5   41.20    1.50
   0   6   5   40.40    1.70
   0   6  -5   38.90    1.80
  -1  -6  -5   47.30    2.30
  -1  -6  -5   47.40    2.40
   1  -6   5   45.00    2.90
  -1  -6  -5   46.00    2.10
  -1  -6  -5   49.00    2.20
   1  -6   5   47.20    2.50
   1  -6   5   47.70    2.00
  -1  -6  -5   46.40    2.20
   1  -6   5   45.70    2.00
   1  -6   5   46.80    2.30
   1  -6   5   44.50    3.10
  -1  -6  -5   44.80    2.40
  -1   6  -5   45.90    2.00
  -1   6  -5   49.40    2.00
  -1   6  -5   50.19    2.00
  -1   6  -5   51.99    1.90
  -2  -6  -5    4.90    0.60
  -2  -6  -5    5.80    0.80
  -2  -6  -5    4.80    0.60
   2  -6   5    1.60    2.50
   2  -6   5    4.20    0.80
  -2  -6  -5    5.20    0.70
  -2  -6  -5    4.30    0.60
   2  -6   5    3.60    1.00
   2  -6   5    3.80    1.00
   2  -6   5    4.10    0.70
  -2  -6  -5    4.00    0.70
  -2   6  -5    4.00    0.50
  -2   6  -5    4.90    0.50
  -2   6  -5    4.80    0.80
  -2   6  -5    4.00    0.40
   3  -6   5   84.79    3.40
  -3  -6  -5   90.59    3.10
  -3  -6  -5   83.29    3.30
   3  -6   5   83.59    3.40
  -3  -6  -5   86.29    3.40
  -3  -6  -5   79.19    3.30
   3  -6   5   77.19    4.20
  -3  -6  -5   85.59    3.50
   3  -6   5   76.49    4.30
   3  -6   5   85.09    3.40
  -3   6  -5   91.99    3.30
  -3   6  -5   88.99    3.60
  -3   6  -5   91.39    3.20
  -4  -6  -5   73.19    2.50
  -4  -6  -5   67.09    2.60
   4  -6   5   60.29    3.40
   4  -6   5   70.89    3.20
  -4  -6  -5   66.59    2.70
   4  -6   5   70.69    2.90
  -4  -6  -5   69.39    2.80
   4  -6   5   62.29    3.00
  -4  -6  -5   67.29    2.60
  -4   6  -5   70.39    2.60
  -4   6  -5   72.49    2.50
   3  -7  -5   10.90    0.90
  -3  -7   5   10.60    0.70
  -3  -7   5    9.60    0.90
   3  -7  -5   11.30    0.80
  -3  -7   5    9.80    0.80
   3  -7  -5   10.10    0.80
  -3  -7   5   10.70    0.60
   3  -7  -5    9.70    0.60
   2  -7  -5    2.30    0.40
  -2  -7   5    1.90    0.60
   2  -7  -5    1.80    0.40
   2  -7  -5    2.20    0.40
   2  -7  -5    2.10    0.50
  -2  -7   5    2.10    0.60
  -2  -7   5    2.20    0.40
  -2  -7   5    2.40    0.40
  -2  -7   5    1.40    0.70
  -1  -7   5   22.20    1.20
  -1  -7   5   23.40    1.00
  -1  -7   5   22.50    1.40
   1  -7  -5   23.00    1.20
  -1  -7   5   22.60    1.50
   1  -7  -5   22.90    1.20
   1  -7  -5   26.30    1.40
   1  -7  -5   23.00    1.20
  -1  -7   5   22.60    1.40
   0  -7  -5   72.99    2.90
   0  -7  -5   73.29    2.80
   0  -7  -5   72.79    2.80
   0  -7   5   77.49    3.40
   0  -7  -5   65.69    2.80
   0  -7   5   70.89    3.20
   0  -7   5   72.29    3.00
 -13   0   6    0.10    0.10
  13   0  -6    0.20    0.20
 -13   0   6    0.10    0.10
 -12   0   6    0.20    0.10
 -12   0   6    0.20    0.10
 -12   0   6    0.30    0.20
  12   0  -6    0.10    0.20
  12   0  -6   -0.10    0.30
  12   0  -6   -0.40    0.20
  11   0  -6   10.20    1.20
 -11   0   6   10.70    0.80
 -11   0   6   10.30    0.80
  11   0  -6   10.80    0.90
 -11   0   6   11.30    1.20
 -10   0   6    8.40    1.10
 -10   0   6    9.70    0.90
 -10   0   6   12.10    1.00
  10   0  -6    8.20    1.00
   9   0  -6   11.80    1.50
   9   0  -6   10.90    0.70
   9   0  -6   10.90    1.00
  -9   0   6   11.50    1.10
  -9   0   6   12.80    1.00
  -9   0   6   14.00    1.30
   8   0  -6  883.91   31.70
   8   0  -6  860.31   30.10
  -8   0   6  832.82   30.30
   8   0  -6  804.42   28.40
   7   0  -6  161.38    5.80
  -7   0   6  167.08    6.40
  -7   0   6  161.38    6.60
   7   0  -6  166.18    6.90
  -7   0   6  159.28    7.10
  -7   0   6  161.18    6.90
   7   0  -6  161.88    7.00
   6   0  -6  159.08    6.40
  -6   0   6  156.98    6.60
   6   0  -6  151.08    5.50
  -6   0   6  155.68    6.20
   6   0  -6  149.99    6.50
  -6   0   6  157.18    6.40
   5   0  -6  396.06   14.00
   5   0  -6  393.76   14.10
  -5   0   6  393.96   13.90
  -5   0   6  398.96   14.20
   5   0  -6  385.16   13.50
  -5   0   6  402.66   13.80
   5   0  -6  378.16   13.20
   5   0  -6  348.77   13.10
  -5   0   6  385.26   13.60
  -5   0   6  388.16   13.60
   4   0  -6   42.00    2.00
   4   0  -6   42.70    2.40
  -4   0   6   43.00    2.20
  -4   0   6   43.60    2.30
   4   0  -6   37.00    1.70
  -4   0   6   43.20    2.00
  -4   0   6   42.70    2.50
  -4   0   6   42.00    1.80
   3   0  -6  374.16   14.00
   3   0  -6  375.56   13.00
  -3   0   6  360.76   13.10
  -3   0   6  382.46   13.60
  -3   0   6  381.56   13.00
  -3   0   6  389.06   13.50
  -3   0   6  374.36   13.20
   2   0  -6   93.59    3.70
  -2   0   6   94.09    3.60
  -2   0   6   90.99    3.70
  -2   0   6   91.79    3.80
   2   0  -6   97.29    4.10
  -2   0   6  102.19    4.10
  -1   0   6  426.86   14.90
   1   0  -6  429.36   14.90
  -1   0   6  397.56   14.50
   1   0  -6  424.86   14.50
  -1   0   6  417.56   14.40
   0   0   6   33.70    2.10
   0   0   6   33.70    1.40
   0   0   6   34.50    1.70
   0   0  -6   33.90    1.90
   0   0  -6   38.10    2.10
   0   0   6   34.40    1.90
   0   0   6   32.40    1.80
   0   0  -6   33.10    1.80
  -1   0  -6   76.89    3.40
  -1   0  -6   76.99    3.40
  -1   0  -6   68.29    5.30
   1   0   6   80.69    4.00
  -1   0  -6   71.89    4.20
   1   0   6   73.19    3.30
   1   0   6   76.49    3.20
   2   0   6  116.89    4.20
   2   0   6  117.19    4.30
  -2   0  -6  114.89    4.90
  -2   0  -6  115.59    4.90
   2   0   6  114.19    4.80
  -2   0  -6  115.79    4.90
  -2   0  -6  116.49    5.60
   2   0   6  118.29    4.70
   3   0   6  225.68    8.60
  -3   0  -6  233.28    8.80
  -3   0  -6  230.68    8.90
  -3   0  -6  228.18    9.00
   3   0   6  222.58    8.10
   3   0   6  230.88    8.80
  -3   0  -6  236.88    9.80
  -5   0  -6  189.78    7.60
   5   0   6  184.88    6.80
   5   0   6  191.78    6.60
   5   0   6  195.48    7.70
   5   0   6  192.38    7.00
  -5   0  -6  184.98    7.00
  -5   0  -6  185.38    7.10
   6   0   6  259.97    9.90
  -6   0  -6  261.77   10.00
   6   0   6  279.37    9.90
  -6   0  -6  265.27    9.90
  -6   0  -6  310.57   11.30
   6   0   6  308.87   11.40
   6   0   6  256.57    9.90
   6   0   6  276.37    9.40
   7   0   6   39.70    2.50
  -7   0  -6   43.90    2.00
  -7   0  -6   45.60    2.50
   7   0   6   44.80    2.10
  -7   0  -6   39.90    2.20
   8   0   6   96.49    4.60
  -8   0  -6   90.99    4.20
  -8   0  -6  103.39    3.80
   8   0   6  101.69    3.80
  -8   0  -6  101.89    3.90
   9   0   6   53.09    2.00
  -9   0  -6   50.19    2.00
  -9   0  -6   51.39    2.00
  -9   0  -6   53.69    2.10
  -9   0  -6   45.20    2.10
  13  -1  -6   39.60    2.40
  13  -1  -6   50.69    2.00
 -13  -1   6   47.50    1.80
 -13  -1   6   48.20    1.80
 -13   1   6   49.60    1.90
  13   1  -6   50.19    2.10
 -13   1   6   49.50    1.90
  12  -1  -6    2.20    0.90
 -12  -1   6    1.00    0.70
 -12   1   6    0.00    0.20
 -12   1   6   -0.10    0.20
 -12   1   6    0.20    0.20
  12   1  -6    0.10    0.20
 -11  -1   6   78.09    3.40
  11  -1  -6   91.29    3.60
 -11  -1   6   86.99    3.30
  11  -1  -6   84.89    4.00
 -11  -1   6   85.09    3.30
 -11  -1   6   79.49    3.50
 -11   1   6   86.99    4.00
  11   1  -6   85.29    3.10
  11   1  -6   89.09    3.40
 -10  -1   6   30.80    1.80
 -10  -1   6   40.60    1.90
 -10  -1   6   34.90    2.00
  10  -1  -6   28.10    1.80
  10  -1  -6   33.60    1.70
 -10  -1   6   39.70    2.20
 -10   1   6   34.60    2.20
 -10   1   6   34.30    1.70
  10   1  -6   34.60    1.60
 -10   1   6   31.40    1.70
  10   1  -6   37.40    1.60
  10   1  -6   40.40    2.20
 -10   1   6   32.60    1.80
  -9  -1   6  131.39    5.90
  -9  -1   6  158.68    5.60
   9  -1  -6  160.28    5.70
  -9  -1   6  156.08    6.00
  -9  -1   6  156.68    5.70
   9  -1  -6  148.79    5.70
   9   1  -6  164.78    5.70
  -9   1   6  165.38    6.60
  -9   1   6  159.08    6.10
  -9   1   6  161.78    6.10
  -9   1   6  166.68    6.00
   9   1  -6  162.68    5.80
   9   1  -6  164.18    6.00
   9   1  -6  168.58    5.90
   9   1  -6  160.78    6.10
   8  -1  -6   17.20    2.90
   8  -1  -6   16.80    3.30
  -8  -1   6   18.00    1.30
  -8  -1   6   18.80    2.80
  -8  -1   6   18.20    2.80
   8   1  -6   13.10    3.80
   8   1  -6   19.80    1.10
   8   1  -6   16.30    2.50
   8   1  -6   19.10    1.10
  -8   1   6   20.30    2.50
  -8   1   6   16.40    2.30
  -8   1   6   22.30    1.80
   8   1  -6   19.00    3.90
   7  -1  -6   82.59    7.00
   7  -1  -6  100.79    5.70
  -7  -1   6  112.39    5.90
  -7  -1   6  107.39    4.20
  -7   1   6  107.69    4.00
   7   1  -6  108.69    4.10
  -7   1   6  128.09    6.20
   7   1  -6  113.29    4.20
   7   1  -6  131.59    6.70
   7   1  -6  111.29    4.20
  -7   1   6  110.59    4.90
   7   1  -6  110.39    5.40
   7   1  -6  108.29    5.00
  -7   1   6  111.59    4.70
  -6  -1   6  500.55   16.50
  -6  -1   6  483.05   17.30
  -6  -1   6  479.95   16.50
   6  -1  -6  497.85   18.00
  -6  -1   6  441.06   18.00
  -6  -1   6  423.66   16.90
   6  -1  -6  481.05   18.80
   6   1  -6  483.05   17.10
  -6   1   6  483.65   16.30
   6   1  -6  478.55   16.40
   6   1  -6  494.95   16.50
  -6   1   6  492.85   16.40
  -6   1   6  507.15   17.30
   6   1  -6  480.05   17.30
  -6   1   6  450.35   18.00
  -6   1   6  497.95   16.70
  -5  -1   6  248.98    9.40
   5  -1  -6  265.67   10.00
  -5  -1   6  263.47    9.40
  -5  -1   6  267.57   10.00
  -5  -1   6  267.17   10.30
  -5  -1   6  263.57   10.10
   5   1  -6  265.57    9.80
   5   1  -6  262.37    9.60
   5   1  -6  263.47    9.80
   5   1  -6  258.47    9.10
  -5   1   6  258.77    8.90
   5   1  -6  260.77    9.00
  -5   1   6  261.87    9.50
  -5   1   6  262.67    9.20
  -5   1   6  264.57    9.90
  -5   1   6  268.87    9.70
  -5   1   6  260.77    9.00
  -4  -1   6  366.26   12.50
   4  -1  -6  359.46   13.00
  -4  -1   6  343.17   12.50
  -4  -1   6  362.66   13.10
  -4   1   6  374.36   13.50
  -4   1   6  365.56   12.90
  -4   1   6  356.66   12.30
   4   1  -6  357.96   12.30
   4   1  -6  372.36   13.10
   4   1  -6  371.06   12.90
   4   1  -6  359.26   12.40
  -4   1   6  365.26   13.10
  -4   1   6  355.66   12.30
  -3  -1   6  286.07   10.20
  -3  -1   6  291.07   10.80
  -3  -1   6  287.67   10.60
  -3  -1   6  290.77   10.20
   3  -1  -6  292.27   10.80
  -3   1   6  301.57   10.00
  -3   1   6  284.07    9.80
   3   1  -6  286.77    9.80
   3   1  -6  292.87   10.30
  -3   1   6  275.07   10.00
   3   1  -6  282.47    9.90
   3   1  -6  279.87   10.20
  -3   1   6  288.57   10.50
   3   1  -6  300.77   10.50
  -3   1   6  284.57   10.00
  -3   1   6  294.07   10.40
  -2  -1   6  684.73   23.60
  -2  -1   6  680.93   23.60
   2  -1  -6  695.63   24.10
  -2  -1   6  708.13   24.20
  -2  -1   6  689.33   23.90
   2   1  -6  686.03   24.30
   2   1  -6  706.83   24.10
  -2   1   6  720.23   24.60
  -2   1   6  687.03   24.00
  -2   1   6  705.13   23.60
   2   1  -6  685.43   23.40
   2   1  -6  700.33   24.20
   2   1  -6  689.23   24.00
  -1  -1   6  269.77    9.80
  -1  -1   6  282.47    9.90
  -1  -1   6  286.37   10.60
  -1  -1   6  267.57   10.00
   1   1  -6  275.77    9.90
  -1   1   6  276.97    9.30
   1   1  -6  268.27    9.80
  -1   1   6  283.37   10.00
   1   1  -6  275.87    9.40
   1   1  -6  268.57   10.10
   1   1  -6  270.47   10.00
  -1   1   6  275.37    9.40
  -1   1   6  279.37    9.60
   0  -1  -6   38.70    2.00
   0  -1   6   35.20    2.50
   0  -1   6   38.70    2.00
   0  -1  -6   42.90    2.10
   0  -1  -6   37.50    2.00
   0  -1   6   37.80    1.90
   0  -1  -6   39.00    2.70
   0   1  -6   36.40    1.60
   0   1  -6   39.10    2.10
   0   1  -6   36.80    1.50
   0   1  -6   35.60    1.90
   0   1   6   39.30    1.50
   0   1   6   38.30    2.20
   0   1  -6   37.80    2.10
   0   1   6   39.20    1.50
  -1  -1  -6   92.99    4.10
  -1  -1  -6   94.19    4.00
   1  -1   6   91.29    4.00
  -1  -1  -6   94.19    4.10
   1  -1   6   94.89    3.90
  -1  -1  -6   98.49    5.00
  -1   1  -6   97.79    4.10
   1   1   6   94.79    4.30
  -1   1  -6   91.09    4.00
   1   1   6   90.89    3.70
  -1   1  -6   96.19    4.30
  -1   1  -6   93.09    3.50
   1   1   6   92.29    3.30
   1   1   6   97.59    3.40
   1   1   6   89.19    4.10
  -1   1  -6   92.89    3.40
  -1   1  -6   91.09    3.90
   1   1   6   87.49    3.90
  -2  -1  -6   38.60    3.10
  -2  -1  -6   38.10    2.50
   2  -1   6   40.80    2.30
  -2  -1  -6   46.60    2.90
  -2  -1  -6   38.00    2.30
  -2   1  -6   35.40    3.00
   2   1   6   38.20    2.20
  -2   1  -6   38.20    2.30
  -2   1  -6   38.90    1.60
  -2   1  -6   39.60    2.30
  -2   1  -6   37.50    2.50
   2   1   6   38.50    2.00
  -2   1  -6   37.10    2.10
  -2   1  -6   36.90    1.70
   2   1   6   38.30    2.50
   2   1   6   37.60    1.60
   2   1   6   39.60    1.70
  -3  -1  -6   87.49    4.40
   3  -1   6  103.19    5.40
  -3  -1  -6   85.29    3.90
   3  -1   6   84.99    4.00
  -3  -1  -6   84.29    6.40
   3   1   6   94.29    3.40
   3   1   6   90.69    3.40
   3   1   6   93.99    4.60
  -3   1  -6   91.29    4.40
   3   1   6   95.29    5.00
  -3   1  -6   92.09    4.20
  -3   1  -6   85.09    4.30
   3   1   6   89.09    3.90
  -3   1  -6   88.89    4.50
   3   1   6   90.69    3.50
  -4  -1  -6   52.49    4.20
  -4  -1  -6   48.00    6.70
   4  -1   6   47.90    2.70
  -4  -1  -6   43.70    3.50
  -4  -1  -6   48.60    2.70
   4   1   6   45.60    2.60
   4   1   6   52.69    3.40
  -4   1  -6   49.50    2.80
   4   1   6   47.50    2.80
  -4   1  -6   48.20    3.50
  -4   1  -6   42.10    3.60
  -4   1  -6   44.60    2.70
   4   1   6   47.60    2.10
   4   1   6   48.90    2.00
   4   1   6   49.10    3.80
   5  -1   6   65.79    3.50
  -5  -1  -6   67.69    3.40
   5  -1   6   69.09    3.50
   5  -1   6   73.69    3.60
   5   1   6   65.49    3.50
  -5   1  -6   65.89    3.50
   5   1   6   68.49    2.70
   5   1   6   69.09    2.70
  -5   1  -6   67.99    3.30
  -5   1  -6   61.19    3.00
   5   1   6   72.99    2.80
  -6  -1  -6  122.59    4.80
   6  -1   6  120.79    4.80
   6  -1   6  121.19    4.80
  -6  -1  -6  122.89    4.70
   6  -1   6  126.99    4.80
  -6  -1  -6  129.99    5.40
  -6  -1  -6  119.79    4.90
   6  -1   6  122.89    5.50
   6   1   6  126.79    4.90
   6   1   6  126.59    4.70
   6   1   6  130.99    4.70
   6   1   6  116.59    5.70
  -6   1  -6  127.39    4.90
   6   1   6  130.49    4.80
  -6   1  -6  131.69    4.90
   6   1   6  132.09    4.50
  -6   1  -6  120.59    5.00
  -6   1  -6  122.39    5.80
   7  -1   6  156.78    6.40
   7  -1   6  158.68    5.80
   7  -1   6  154.38    5.80
  -7  -1  -6  155.58    5.80
  -7  -1  -6  152.08    5.80
  -7  -1  -6  154.48    6.10
  -7  -1  -6  158.88    5.80
   7   1   6  165.58    5.80
  -7   1  -6  165.28    6.70
   7   1   6  153.68    6.80
   7   1   6  163.98    6.10
   7   1   6  165.48    5.70
  -7   1  -6  160.08    6.10
  -7   1  -6  164.88    6.00
  -7   1  -6  164.58    6.10
  -8  -1  -6    2.90    0.50
   8  -1   6    3.20    0.60
   8  -1   6    3.10    0.60
  -8  -1  -6    2.70    0.50
   8  -1   6    3.20    0.90
  -8  -1  -6    2.40    0.40
   8   1   6    2.40    0.50
   8   1   6   -1.80    1.60
  -8   1  -6    2.90    0.60
  -8   1  -6    3.70    0.50
  -8   1  -6    3.90    0.90
  -9  -1  -6   20.50    1.00
   9  -1   6   23.30    1.20
  -9  -1  -6   21.50    1.00
   9  -1   6   17.50    1.60
  -9  -1  -6   22.10    1.00
  -9   1  -6   23.40    1.10
  -9   1  -6   23.30    1.10
   9   1   6   23.10    1.10
  12  -2  -6   38.00    1.60
 -12  -2   6   38.00    1.40
 -12  -2   6   38.10    1.50
  12  -2  -6   33.80    2.10
  12  -2  -6   33.90    2.00
 -12  -2   6   35.10    1.60
  12   2  -6   39.20    1.60
 -12   2   6   40.10    1.60
 -12   2   6   32.10    1.90
  12   2  -6   38.00    1.70
 -12   2   6   43.00    1.80
  12   2  -6   39.60    1.40
 -11  -2   6   24.50    1.40
  11  -2  -6   25.50    2.30
 -11  -2   6   24.20    1.10
 -11  -2   6   24.30    1.20
  11  -2  -6   25.20    1.30
  11   2  -6   27.60    1.30
  11   2  -6   27.10    1.40
  11   2  -6   25.50    1.30
  11   2  -6   28.20    1.10
 -11   2   6   27.70    1.80
 -11   2   6   26.40    1.30
 -11   2   6   25.40    1.30
 -11   2   6   24.60    1.40
  11   2  -6   27.10    1.30
  10  -2  -6   14.30    1.00
 -10  -2   6   16.20    0.90
  10  -2  -6   15.60    1.60
 -10  -2   6   14.70    1.20
 -10  -2   6   15.40    0.90
 -10   2   6   15.20    1.10
  10   2  -6   17.50    1.00
 -10   2   6   15.00    1.40
  10   2  -6   17.80    1.00
  10   2  -6   17.40    0.80
  10   2  -6   17.20    1.10
  10   2  -6   17.20    1.10
 -10   2   6   16.90    1.10
 -10   2   6   16.20    0.70
 -10   2   6   16.70    1.00
  -9  -2   6   73.29    3.40
  -9  -2   6   75.09    2.90
   9  -2  -6   69.59    3.00
   9  -2  -6   81.29    3.90
  -9  -2   6   70.69    3.30
  -9  -2   6   74.39    3.00
   9   2  -6   80.39    3.30
   9   2  -6   80.99    3.20
  -9   2   6   80.69    3.30
   9   2  -6   79.89    3.30
  -9   2   6   81.79    2.90
   9   2  -6   90.29    3.50
   9   2  -6   80.59    3.00
  -8  -2   6   39.90    2.00
   8  -2  -6   42.50    2.30
  -8  -2   6   36.00    2.10
  -8  -2   6   38.70    1.70
  -8   2   6   49.70    2.60
   8   2  -6   39.20    1.70
  -8   2   6   40.50    1.80
   8   2  -6   40.90    1.80
  -8   2   6   42.80    2.50
   8   2  -6   42.50    1.90
   8   2  -6   41.30    2.00
  -8   2   6   40.80    1.70
   8   2  -6   39.30    1.80
  -7  -2   6   62.19    2.70
  -7  -2   6   52.29    6.20
   7  -2  -6   55.69    4.10
  -7  -2   6   61.59    2.90
  -7   2   6   61.49    2.30
  -7   2   6   50.29    5.20
  -7   2   6   66.19    2.30
  -7   2   6   65.29    2.80
   7   2  -6   60.69    2.50
  -7   2   6   58.19    3.00
  -7   2   6   62.69    2.40
   7   2  -6   61.49    2.50
   7   2  -6   55.79    4.60
   7   2  -6   63.69    2.50
   6  -2  -6   99.39    5.10
  -6  -2   6  103.39    5.40
  -6  -2   6  105.39    4.10
   6   2  -6  106.59    4.90
  -6   2   6  105.99    5.00
  -6   2   6  106.29    3.90
  -6   2   6  106.99    3.90
   6   2  -6  109.59    4.00
  -6   2   6  126.59    5.80
   6   2  -6  108.29    3.90
  -6   2   6  107.69    4.30
  -6   2   6  106.39    4.60
   6   2  -6  108.99    4.90
  -5  -2   6  398.36   13.90
   5  -2  -6  412.26   14.90
  -5  -2   6  388.76   13.90
  -5  -2   6  400.56   15.60
   5   2  -6  403.16   13.70
   5   2  -6  401.06   14.70
  -5   2   6  406.46   14.40
   5   2  -6  394.56   14.40
  -5   2   6  404.16   13.60
  -5   2   6  392.16   14.20
  -5   2   6  408.96   14.00
  -5   2   6  404.96   14.60
  -5   2   6  392.46   13.50
   5   2  -6  395.96   13.60
  -4  -2   6  289.47   10.30
  -4  -2   6  289.87   10.40
  -4  -2   6  289.47   11.50
   4  -2  -6  299.87   11.20
  -4  -2   6  298.97   11.40
   4   2  -6  291.37   10.90
  -4   2   6  298.37   10.50
  -4   2   6  307.97   10.10
  -4   2   6  287.17   10.90
   4   2  -6  302.37   10.20
   4   2  -6  293.07   10.20
  -4   2   6  301.87   10.90
   4   2  -6  306.57   10.90
  -4   2   6  305.07   10.20
  -4   2   6  292.17   11.00
  -3  -2   6  135.89    5.20
   3  -2  -6  144.89    6.00
  -3  -2   6  129.19    6.20
  -3  -2   6  129.89    5.30
  -3  -2   6  140.09    6.00
   3  -2  -6  141.19    6.70
   3   2  -6  144.09    5.40
   3   2  -6  144.09    5.60
  -3   2   6  139.09    5.60
   3   2  -6  135.19    6.10
  -3   2   6  142.99    5.00
  -3   2   6  140.49    5.30
   3   2  -6  144.49    4.90
   3   2  -6  139.89    5.00
  -3   2   6  141.49    4.90
  -3   2   6  144.89    5.60
  -2  -2   6 1143.49   39.50
   2  -2  -6 1200.58   41.20
  -2  -2   6 1226.58   40.30
  -2  -2   6 1158.68   39.80
  -2  -2   6 1160.18   39.40
  -2  -2   6 1136.19   40.50
   2   2  -6 1204.58   40.60
  -2   2   6 1208.18   41.20
   2   2  -6 1270.57   41.80
  -2   2   6 1196.98   41.10
   2   2  -6 1261.07   41.30
   2   2  -6 1203.48   40.60
   2   2  -6 1210.28   41.00
  -2   2   6 1241.58   40.90
  -2   2   6 1191.58   40.50
  -2   2   6 1196.38   40.60
   2   2  -6 1200.18   41.10
  -1  -2   6  266.27   10.00
  -1  -2   6  271.17    9.80
   1  -2  -6  280.57   11.30
  -1  -2   6  274.87   10.40
   1  -2  -6  267.47    9.70
   1  -2  -6  277.07   10.20
  -1  -2   6  268.37    9.60
   1   2  -6  283.47   10.60
  -1   2   6  281.67    9.50
  -1   2   6  278.77    9.80
  -1   2   6  276.87    9.40
   1   2  -6  280.97    9.50
  -1   2   6  283.37   10.10
   1   2  -6  280.07   10.10
   1   2  -6  274.27    9.60
   1   2  -6  265.37    9.90
   0  -2   6  792.22   27.60
   0  -2  -6  827.82   29.30
   0  -2   6  818.92   27.90
   0  -2  -6  805.12   27.50
   0  -2  -6  796.22   27.90
   0  -2   6  803.92   27.90
   0  -2  -6  803.12   28.00
   0   2  -6  861.71   29.10
   0   2   6  836.92   28.70
   0   2  -6  831.42   29.30
   0   2   6  905.71   29.80
   0   2  -6  849.22   28.40
   0   2  -6  814.42   28.90
   0   2  -6  853.51   28.50
   0   2   6  862.91   28.40
   0   2  -6  844.62   29.60
   0   2   6  826.62   28.30
   1  -2   6  124.49    4.90
   1  -2   6  124.89    5.20
  -1  -2  -6  118.69    4.80
  -1  -2  -6  115.49    5.40
   1  -2   6  117.09    4.60
  -1  -2  -6  123.49    6.40
  -1  -2  -6  115.29    5.10
   1   2   6  128.99    5.80
   1   2   6  124.39    5.60
  -1   2  -6  126.39    5.60
   1   2   6  119.39    4.70
  -1   2  -6  116.29    4.90
  -1   2  -6  122.89    4.50
   1   2   6  123.89    4.30
   1   2   6  126.09    4.40
  -1   2  -6  118.09    5.20
  -1   2  -6  125.19    6.00
  -1   2  -6  125.49    4.50
  -1   2  -6  124.29    5.60
  -2  -2  -6   23.80    1.50
  -2  -2  -6   25.80    2.30
  -2  -2  -6   18.50    3.00
   2  -2   6   25.10    1.90
   2  -2   6   23.50    1.60
   2   2   6   23.50    1.10
  -2   2  -6   23.10    2.60
  -2   2  -6   22.10    1.60
   2   2   6   24.80    1.50
   2   2   6   21.00    2.20
  -2   2  -6   24.50    2.00
  -2   2  -6   28.90    2.80
  -2   2  -6   23.90    2.30
   2   2   6   25.50    1.20
  -2   2  -6   24.50    1.20
   2   2   6   24.40    1.10
  -2   2  -6   23.90    1.10
  -3  -2  -6  131.79    5.20
  -3  -2  -6  129.59    7.10
   3  -2   6  133.19    5.50
  -3  -2  -6  124.29    6.00
  -3   2  -6  133.29    4.90
   3   2   6  136.79    4.80
  -3   2  -6  136.69    4.90
  -3   2  -6  129.59    5.90
  -3   2  -6  129.89    5.50
  -3   2  -6  136.79    4.80
   3   2   6  120.99    5.70
  -3   2  -6  131.79    6.30
   3   2   6  135.79    4.90
  -3   2  -6  134.89    5.80
   3   2   6  139.29    4.80
   3   2   6  132.99    6.20
   4  -2   6  152.48    5.60
  -4  -2  -6  129.39    5.00
   4  -2   6  124.49    5.00
   4  -2   6  135.99    5.70
   4  -2   6  128.59    5.10
  -4  -2  -6  119.29    7.90
  -4  -2  -6  130.19    5.00
  -4  -2  -6  136.89    5.30
  -4   2  -6  140.09    5.20
  -4   2  -6  140.09    6.00
   4   2   6  147.49    5.50
  -4   2  -6  143.79    5.30
   4   2   6  140.29    5.20
  -4   2  -6  138.29    6.20
   4   2   6  161.88    5.80
  -4   2  -6  146.09    5.60
  -4   2  -6  141.79    5.10
   4   2   6  140.09    5.20
  -5  -2  -6    0.40    0.20
  -5  -2  -6    0.00    0.20
  -5  -2  -6    0.20    0.20
   5  -2   6    0.10    0.20
  -5  -2  -6    0.10    0.20
   5  -2   6    0.40    0.20
   5  -2   6    0.20    0.30
   5   2   6    2.70    0.90
  -5   2  -6   15.40   16.80
  -5   2  -6    2.70    0.80
   6  -2   6   77.39    3.60
  -6  -2  -6   71.19    3.20
  -6  -2  -6   73.89    3.00
  -6  -2  -6   77.59    3.10
  -6  -2  -6   71.59    3.00
   6  -2   6   70.79    3.00
   6  -2   6   72.29    3.10
  -6  -2  -6   69.19    3.00
  -6   2  -6   77.09    2.80
   6   2   6   79.09    3.30
  -6   2  -6   74.29    3.90
   6   2   6   78.19    3.10
  -6   2  -6   77.59    3.20
   6   2   6   77.69    3.20
  -6   2  -6   74.29    3.30
  -6   2  -6   74.89    3.30
   6   2   6   77.19    2.90
   6   2   6   78.39    3.00
   7  -2   6   22.70    1.60
  -7  -2  -6   22.10    1.30
  -7   2  -6   24.20    1.30
  -7   2  -6   21.70    1.80
   7   2   6   23.30    1.10
   7   2   6   26.80    1.80
   7   2   6   23.60    1.20
  -7   2  -6   23.40    1.40
   7   2   6   24.30    1.50
  -8  -2  -6   43.60    1.80
  -8  -2  -6   43.20    1.90
  -8  -2  -6   43.60    1.90
   8  -2   6   43.10    1.90
  -8  -2  -6   45.20    1.80
   8   2   6   42.90    2.10
  -8   2  -6   43.90    1.90
  -8   2  -6   44.80    2.00
   8   2   6   46.00    1.70
   8   2   6   47.80    2.00
  -8   2  -6   42.30    2.20
  12  -3  -6   24.50    1.50
  12  -3  -6   23.10    1.40
 -12  -3   6   25.90    1.30
  12  -3  -6   24.50    1.10
  12   3  -6   30.00    1.10
  12   3  -6   26.60    1.20
 -12   3   6   27.40    1.40
  11  -3  -6   39.90    1.70
  11  -3  -6   38.30    2.20
 -11  -3   6   40.40    1.50
 -11  -3   6   39.30    1.50
  11  -3  -6   39.60    2.20
  11  -3  -6   38.40    2.60
  11   3  -6   46.80    1.70
  11   3  -6   51.49    2.30
  11   3  -6   44.60    2.20
 -11   3   6   43.80    1.90
  11   3  -6   43.90    1.80
 -10  -3   6   62.29    3.00
 -10  -3   6   59.19    2.30
 -10  -3   6   54.79    2.60
 -10  -3   6   57.39    2.70
  10  -3  -6   60.79    3.70
 -10  -3   6   59.59    2.20
  10  -3  -6   61.59    3.20
 -10   3   6   64.69    2.30
  10   3  -6   68.19    2.60
  10   3  -6   69.59    2.70
  10   3  -6   65.59    2.50
  10   3  -6   66.49    2.70
  10   3  -6   66.79    2.70
 -10   3   6   54.49    3.00
   9  -3  -6  141.99    6.60
   9  -3  -6  146.49    5.40
  -9  -3   6  145.39    5.20
  -9  -3   6  144.59    5.20
  -9  -3   6  147.29    5.80
  -9  -3   6  144.99    5.60
  -9  -3   6  147.19    5.80
  -9   3   6  162.78    5.70
   9   3  -6  159.28    5.70
  -9   3   6  164.18    6.90
   9   3  -6  167.38    5.90
   9   3  -6  167.88    5.80
  -9   3   6  161.08    5.90
   9   3  -6  164.38    5.80
  -9   3   6  157.88    5.70
   9   3  -6  159.38    5.90
  -9   3   6  160.38    5.60
  -9   3   6  160.98    5.80
  -9   3   6  160.18    6.20
  -8  -3   6   52.79    2.60
   8  -3  -6   53.99    2.40
   8  -3  -6   59.99    3.30
  -8  -3   6   57.09    2.90
   8  -3  -6   51.39    3.40
  -8  -3   6   54.69    2.30
  -8  -3   6   55.69    2.20
  -8  -3   6   55.89    2.30
  -8   3   6   62.39    2.50
   8   3  -6   63.49    2.60
  -8   3   6   61.99    2.60
   8   3  -6   62.79    2.40
  -8   3   6   60.49    2.90
   8   3  -6   60.49    2.70
  -8   3   6   62.49    2.40
   8   3  -6   64.39    2.60
   8   3  -6   69.19    2.80
  -8   3   6   63.79    2.30
  -8   3   6   65.39    2.70
  -7  -3   6  372.96   14.00
   7  -3  -6  351.76   13.20
   7   3  -6  422.36   14.70
   7   3  -6  443.26   14.80
  -7   3   6  431.96   15.20
   7   3  -6  428.06   14.70
  -7   3   6  424.06   14.70
  -7   3   6  417.26   14.60
   7   3  -6  437.66   15.40
  -7   3   6  427.16   14.60
  -7   3   6  426.36   14.70
   7   3  -6  453.05   14.90
   6  -3  -6  462.05   17.10
  -6  -3   6  478.95   16.50
  -6   3   6  466.15   19.00
  -6   3   6  512.45   17.20
   6   3  -6  515.65   17.20
  -6   3   6  510.35   17.20
  -6   3   6  528.25   17.80
   6   3  -6  498.95   18.50
  -6   3   6  519.35   17.30
   6   3  -6  527.75   17.40
   6   3  -6  506.85   17.30
   5   3  -6  410.36   15.00
  -5   3   6  420.66   14.00
  -5   3   6  417.76   13.90
   5   3  -6  418.56   13.90
   5   3  -6  423.86   14.10
  -5   3   6  417.26   14.50
  -5   3   6  402.16   15.00
   5   3  -6  388.76   14.90
  -5   3   6  410.86   13.90
  -5   3   6  405.16   15.10
   5   3  -6  402.26   14.00
   4  -3  -6   13.90    3.00
  -4   3   6   79.29    4.10
   4   3  -6   83.79    3.10
  -4   3   6   87.59    4.30
   4   3  -6   69.79    5.30
   4   3  -6   87.19    3.00
   4   3  -6   82.39    4.70
   4   3  -6   78.19    3.10
  -4   3   6   84.39    3.50
  -4   3   6   85.39    3.30
  -4   3   6   81.79    3.00
  -4   3   6   83.29    3.10
  -3  -3   6   30.00    2.80
   3  -3  -6   32.60    3.50
  -3  -3   6   30.90    1.60
  -3   3   6   32.60    1.60
   3   3  -6   32.90    2.40
  -3   3   6   32.10    2.20
   3   3  -6   34.30    2.80
   3   3  -6   33.50    1.40
  -3   3   6   33.60    1.90
   3   3  -6   35.20    2.40
  -3   3   6   33.60    1.30
  -3   3   6   32.90    1.40
   2   3  -6   26.30    1.60
  -2   3   6   27.50    1.90
   2   3  -6   23.90    2.40
  -2   3   6   26.40    1.10
  -2   3   6   26.10    1.20
  -2   3   6   26.70    1.50
   2   3  -6   25.90    1.10
   2   3  -6   26.80    1.30
   2   3  -6   24.70    2.00
   1  -3  -6   92.89    5.60
  -1  -3   6   89.69    5.00
  -1  -3   6   86.09    3.60
  -1  -3   6   86.29    3.60
   1   3  -6   92.49    3.30
   1   3  -6   88.49    4.80
  -1   3   6   91.39    4.00
  -1   3   6   89.29    3.40
   1   3  -6   88.99    3.80
  -1   3   6   92.29    3.30
  -1   3   6   95.09    3.70
   1   3  -6   91.09    3.50
   1   3  -6   95.89    4.20
   0  -3  -6   30.20    3.50
   0  -3   6   30.10    1.70
   0  -3   6   28.90    2.60
   0  -3   6   29.80    1.90
   0  -3  -6   29.40    2.60
   0   3  -6   30.90    1.40
   0   3   6   29.80    1.60
   0   3  -6   30.50    2.20
   0   3   6   30.00    1.30
   0   3   6   31.10    2.80
   0   3   6   31.90    1.30
   0   3   6   30.70    1.30
   0   3  -6   30.60    1.30
   0   3  -6   31.60    2.70
   0   3  -6   31.70    1.40
   0   3  -6   29.20    1.80
   1  -3   6   64.79    3.00
  -1  -3  -6   69.69    4.10
  -1  -3  -6   68.09    5.00
   1  -3   6   69.09    3.10
   1   3   6   73.59    2.80
  -1   3  -6   68.79    3.90
  -1   3  -6   74.49    2.80
  -1   3  -6   72.79    3.80
  -1   3  -6   67.59    4.60
  -1   3  -6   74.49    2.90
  -1   3  -6   68.99    4.20
  -1   3  -6   73.99    2.90
   1   3   6   73.09    4.20
   1   3   6   73.99    2.70
   2  -3   6   98.19    4.30
  -2  -3  -6   85.29    5.10
  -2  -3  -6   96.39    6.20
   2  -3   6   91.39    3.90
  -2   3  -6  102.89    6.60
   2   3   6  102.69    3.80
   2   3   6  101.89    5.40
  -2   3  -6  104.89    3.90
  -2   3  -6  104.99    4.00
   2   3   6  105.79    3.90
  -2   3  -6  122.79    5.90
   2   3   6   99.69    4.20
  -2   3  -6  100.99    5.50
  -2   3  -6  103.69    5.20
   3  -3   6  162.48    6.00
  -3  -3  -6  154.18    6.50
   3  -3   6  153.18    7.30
  -3  -3  -6  169.08    6.00
  -3  -3  -6  156.18    5.80
  -3  -3  -6  163.38    6.40
   3  -3   6  160.18    6.20
  -3  -3  -6  155.48    5.70
   3  -3   6  158.88    6.30
  -3  -3  -6  159.68    6.20
   3  -3   6  159.68    5.90
   3   3   6  171.68    6.40
  -3   3  -6  179.98    6.50
   3   3   6  180.98    6.20
  -3   3  -6  175.68    6.60
   3   3   6  165.68    6.20
   3   3   6  165.28    7.00
  -3   3  -6  175.28    6.10
  -3   3  -6  180.78    6.20
  -3   3  -6  176.48    6.30
  -4  -3  -6  127.69    5.50
   4  -3   6  136.09    5.30
   4  -3   6  137.29    5.50
   4  -3   6  134.09    5.00
  -4  -3  -6  132.09    4.90
  -4  -3  -6  131.89    4.90
   4  -3   6  130.19    5.10
   4  -3   6  130.89    6.20
  -4  -3  -6  132.49    5.20
  -4  -3  -6  134.19    5.40
  -4  -3  -6  136.79    5.20
  -4   3  -6  152.18    5.80
   4   3   6  156.98    5.60
   4   3   6  151.98    5.50
   4   3   6  149.99    5.40
  -4   3  -6  146.19    5.40
   4   3   6  149.39    5.30
  -4   3  -6  153.48    5.30
  -4   3  -6  151.98    5.60
   4   3   6  144.19    5.70
  -4   3  -6  151.48    5.50
  -5  -3  -6  271.17    9.20
  -5  -3  -6  245.58    9.40
  -5  -3  -6  259.97    8.90
  -5  -3  -6  257.57    9.40
  -5  -3  -6  255.17    9.30
   5  -3   6  260.77    9.10
   5  -3   6  263.27    9.60
   5  -3   6  235.98   11.80
  -5  -3  -6  258.77    9.00
   5  -3   6  257.47    9.20
  -5   3  -6  293.37    9.90
  -5   3  -6  287.37   10.30
  -5   3  -6  292.77   10.10
   5   3   6  286.87   10.30
   5   3   6  282.37   10.00
   5   3   6  295.37   10.20
  -5   3  -6  291.77   10.10
  -5   3  -6  287.97   11.30
  -5   3  -6  295.77   10.40
   5   3   6  297.47   10.10
  -6  -3  -6   39.30    2.00
   6  -3   6   43.80    2.00
  -6  -3  -6   38.90    2.30
   6  -3   6   39.60    2.30
  -6  -3  -6   43.80    2.00
  -6   3  -6   41.30    2.10
   6   3   6   42.50    2.20
  -6   3  -6   46.10    1.70
   6   3   6   47.10    2.00
   6   3   6   42.80    2.50
   6   3   6   47.00    1.80
  -6   3  -6   47.60    2.10
  -6   3  -6   42.50    2.80
   6   3   6   48.80    2.10
  -7  -3  -6    9.30    0.80
   7  -3   6   10.80    1.10
   7  -3   6    9.30    1.50
  -7  -3  -6   10.70    0.80
  -7  -3  -6   10.90    1.00
   7  -3   6   10.50    0.80
  -7   3  -6   12.00    0.80
   7   3   6   15.20    1.10
  -7   3  -6    9.30    0.60
   7   3   6   11.50    0.60
   7   3   6   12.50    0.90
  -8  -3  -6    3.90    0.40
   8  -3   6    3.70    0.40
   8  -3   6    3.20    0.60
  -8  -3  -6    2.70    0.50
   8  -3   6    3.60    0.90
   8   3   6    3.30    0.40
  -8   3  -6    3.90    0.40
   8   3   6    4.80    0.40
   8   3   6    4.00    0.30
 -11  -4   6    2.00    0.40
  11  -4  -6    1.60    0.60
  11  -4  -6    2.50    0.50
  11  -4  -6    2.30    0.70
 -11   4   6    2.90    0.30
  11   4  -6    2.70    0.30
 -10  -4   6   23.60    1.30
 -10  -4   6   22.60    1.50
 -10  -4   6   26.90    1.70
  10  -4  -6   23.50    1.60
  10  -4  -6   21.20    1.20
  10   4  -6   27.70    1.20
  10   4  -6   27.60    1.20
 -10   4   6   26.70    1.20
  10   4  -6   26.30    1.40
 -10   4   6   26.10    1.10
  10   4  -6   24.70    1.20
 -10   4   6   26.00    1.00
  -9  -4   6   39.10    2.00
  -9  -4   6   38.60    1.90
   9  -4  -6   39.20    2.30
  -9  -4   6   38.10    1.90
   9  -4  -6   39.90    1.70
   9  -4  -6   37.70    2.80
   9  -4  -6   39.00    2.60
  -9   4   6   44.20    1.80
  -9   4   6   43.90    1.80
   9   4  -6   44.20    1.70
   9   4  -6   44.30    1.90
  -9   4   6   45.30    1.70
  -9   4   6   42.60    1.80
   9   4  -6   51.69    2.20
   9   4  -6   44.50    1.90
  -9   4   6   45.10    1.90
   9   4  -6   45.20    1.90
   8  -4  -6   49.00    2.10
   8  -4  -6   48.50    2.80
  -8  -4   6   50.69    2.60
  -8  -4   6   46.60    2.40
   8  -4  -6   46.70    3.00
  -8  -4   6   50.69    2.00
  -8  -4   6   47.40    2.30
   8  -4  -6   49.99    2.80
  -8   4   6   62.29    3.50
   8   4  -6   54.29    2.10
   8   4  -6   56.79    2.40
   8   4  -6   52.59    2.40
  -8   4   6   54.79    2.20
  -8   4   6   58.19    2.10
  -8   4   6   55.29    2.20
   8   4  -6   57.69    2.20
  -8   4   6   56.19    2.30
  -8   4   6   55.59    2.40
   8   4  -6   56.79    2.30
  -7  -4   6   29.10    1.90
  -7  -4   6   26.30    2.40
   7  -4  -6   31.80    2.20
   7  -4  -6   31.30    1.60
  -7  -4   6   32.30    2.90
   7  -4  -6   36.20    3.20
  -7  -4   6   35.20    2.40
  -7   4   6   31.40    1.70
   7   4  -6   36.20    1.50
  -7   4   6   32.40    2.20
   7   4  -6   34.70    1.70
   7   4  -6   35.30    1.70
  -7   4   6   36.50    1.50
  -7   4   6   35.10    1.70
  -7   4   6   39.20    1.80
  -7   4   6   35.90    1.50
   7   4  -6   33.90    1.50
   6  -4  -6   46.80    2.60
  -6  -4   6   42.30    2.30
  -6  -4   6   43.50    2.30
  -6  -4   6   43.60    2.60
  -6  -4   6   43.00    3.00
  -6  -4   6   42.20    2.20
  -6  -4   6   46.90    1.90
   6  -4  -6   41.60    1.90
   6  -4  -6   44.60    2.70
  -6  -4   6   42.50    2.00
   6  -4  -6   46.00    2.70
   6  -4  -6   44.50    3.00
  -6   4   6   50.59    2.20
  -6   4   6   50.69    2.60
  -6   4   6   49.50    2.00
  -6   4   6   49.80    2.00
   6   4  -6   49.40    2.10
  -6   4   6   48.80    1.90
   6   4  -6   50.39    2.10
  -6   4   6   51.99    2.00
   6   4  -6   49.10    2.00
   5  -4  -6   27.10    2.00
  -5  -4   6   24.30    1.90
   5  -4  -6   24.80    1.40
  -5  -4   6   25.60    2.40
   5  -4  -6   22.20    2.40
  -5  -4   6   27.80    1.70
  -5  -4   6   25.70    1.60
  -5  -4   6   28.20    1.30
   5  -4  -6   25.80    2.00
  -5   4   6   29.10    1.30
  -5   4   6   32.90    1.90
  -5   4   6   30.70    1.40
   5   4  -6   31.70    1.40
  -5   4   6   31.30    1.30
  -5   4   6   30.50    1.50
   5   4  -6   28.80    1.40
   5   4  -6   31.40    1.50
  -4  -4   6  187.18    8.20
   4  -4  -6  186.58    7.50
  -4  -4   6  190.98    7.40
  -4  -4   6  192.68    6.90
   4  -4  -6  177.28    6.60
  -4  -4   6  190.58    6.60
  -4  -4   6  188.48    6.60
  -4  -4   6  182.38    7.00
   4  -4  -6  179.48    7.50
   4  -4  -6  177.18    7.80
  -4   4   6  236.88    8.80
  -4   4   6  210.38    7.70
  -4   4   6  228.78    8.20
   4   4  -6  251.57    9.80
   4   4  -6  217.08    7.80
   4   4  -6  213.58    7.90
  -3  -4   6   27.70    1.50
   3  -4  -6   26.20    2.60
   3  -4  -6   26.70    2.00
  -3  -4   6   20.30    2.10
  -3  -4   6   25.30    2.40
  -3   4   6   31.70    1.30
   3   4  -6   32.00    1.30
   3   4  -6   29.30    1.40
  -3   4   6   28.90    2.70
   3   4  -6   31.20    1.40
  -3   4   6   29.90    1.30
  -3   4   6   31.50    1.40
   3   4  -6   31.00    1.90
  -3   4   6   32.20    1.80
  -2  -4   6  184.08    8.50
  -2  -4   6  181.78    6.80
   2  -4  -6  179.38    9.70
   2   4  -6  193.08    7.50
  -2   4   6  200.98    6.80
  -2   4   6  203.38    6.90
   2   4  -6  189.38    6.90
  -2   4   6  202.58    7.40
   2   4  -6  202.58    7.00
   2   4  -6  181.28    8.00
  -2   4   6  192.88    6.80
   2   4  -6  203.88    6.90
   1  -4  -6  128.19    6.30
   1  -4  -6  157.08    9.60
  -1  -4   6  135.99    5.30
  -1  -4   6  122.69    7.40
  -1  -4   6  136.59    7.30
  -1   4   6  144.09    5.00
   1   4  -6  143.09    5.20
  -1   4   6  147.09    5.60
  -1   4   6  142.79    5.10
   1   4  -6  148.09    5.30
   1   4  -6  147.29    5.10
   1   4  -6  144.79    6.40
   1   4  -6  141.39    5.70
  -1   4   6  141.19    5.10
   0  -4   6  231.88   10.80
   0  -4   6  257.87    9.10
   0  -4  -6  263.67    9.70
   0  -4  -6  248.98    9.60
   0  -4   6  248.08   10.70
   0  -4   6  247.48   10.10
   0  -4  -6  258.07    9.40
   0  -4  -6  248.78    9.60
   0  -4   6  263.67    9.30
   0  -4  -6  255.37    9.30
   0  -4  -6  255.07    9.90
   0   4  -6  296.87   10.10
   0   4   6  281.77   10.00
   0   4  -6  297.77   10.30
   0   4   6  295.97   10.00
   0   4   6  289.27   10.10
   0   4   6  293.27   10.50
  -1  -4  -6   57.29    3.60
   1  -4   6   57.79    6.20
  -1  -4  -6   69.99    3.90
  -1  -4  -6   59.79    3.60
  -1  -4  -6   64.39    3.40
  -1   4  -6   71.29    2.90
   1   4   6   71.69    2.60
  -1   4  -6   71.09    2.80
  -1   4  -6   72.99    2.70
  -1   4  -6   66.39    3.30
   1   4   6   69.09    2.70
  -1   4  -6   62.69    2.90
   1   4   6   70.49    2.70
  -2  -4  -6  504.65   18.20
  -2  -4  -6  506.15   18.10
  -2  -4  -6  517.75   18.50
   2  -4   6  486.15   18.40
  -2  -4  -6  554.64   18.10
   2  -4   6  541.95   17.70
   2  -4   6  509.35   17.60
   2  -4   6  516.75   19.50
   2  -4   6  511.95   17.60
  -2  -4  -6  521.15   18.00
  -2  -4  -6  508.55   17.90
   2  -4   6  484.95   20.10
   2  -4   6  533.75   18.10
   2   4   6  611.04   20.20
  -2   4  -6  602.24   20.40
   2   4   6  595.24   20.30
   2   4   6  607.44   20.40
  -2   4  -6  611.54   20.40
  -2   4  -6  584.04   20.20
  -2   4  -6  570.44   20.60
  -2   4  -6  621.24   20.50
   3  -4   6   85.89    3.60
  -3  -4  -6   82.29    3.50
   3  -4   6   78.49    3.30
  -3  -4  -6   79.29    3.60
  -3  -4  -6   78.99    4.00
  -3  -4  -6   76.19    3.80
   3  -4   6   84.49    4.90
   3  -4   6   79.79    3.40
   3  -4   6   74.29    5.10
   3   4   6   94.89    3.60
  -3   4  -6   95.59    4.10
   3   4   6   95.59    3.70
  -3   4  -6   94.69    3.50
   3   4   6   97.39    3.60
  -3   4  -6   99.29    3.70
  -3   4  -6   94.09    3.70
  -3   4  -6  100.49    3.80
   4  -4   6    8.00    0.70
  -4  -4  -6    7.30    0.90
   4  -4   6    6.10    1.60
  -4  -4  -6    8.20    0.80
   4  -4   6    7.70    1.40
   4  -4   6    8.00    0.90
  -4  -4  -6    8.80    0.90
  -4  -4  -6    8.80    1.00
   4  -4   6    7.50    1.10
  -4  -4  -6    7.90    1.00
  -4   4  -6    9.30    0.60
  -4   4  -6    9.80    0.70
  -4   4  -6    8.50    0.90
   4   4   6    9.30    0.60
  -4   4  -6    9.90    0.70
   4   4   6    9.60    0.80
   4   4   6    8.70    0.70
   4   4   6   10.10    0.70
  -4   4  -6   10.40    0.80
  -5  -4  -6    8.20    0.90
   5  -4   6    9.40    1.10
   5  -4   6    8.50    1.90
   5  -4   6    8.10    1.00
   5  -4   6    7.90    1.30
  -5  -4  -6    9.20    1.20
  -5  -4  -6    8.60    1.10
   5   4   6    9.00    0.60
   5   4   6    8.40    0.80
  -5   4  -6   10.30    0.70
   5   4   6    8.80    0.70
   5   4   6    9.40    0.70
  -5   4  -6    9.20    0.70
  -5   4  -6   11.30    1.00
  -5   4  -6   10.20    0.60
  -6  -4  -6   41.30    1.80
  -6  -4  -6   40.60    1.80
  -6  -4  -6   40.60    1.90
   6  -4   6   40.50    1.70
   6  -4   6   39.00    2.20
   6  -4   6   36.90    2.70
  -6   4  -6   43.20    1.90
   6   4   6   43.90    1.90
   6   4   6   43.50    1.80
   6   4   6   45.60    1.70
   6   4   6   44.90    1.80
  -6   4  -6   45.00    1.80
  -6   4  -6   45.80    1.70
  -6   4  -6   44.20    2.00
   7  -4   6    5.20    0.90
   7  -4   6    5.30    0.40
  -7  -4  -6    4.70    0.50
   7  -4   6    4.00    0.70
  -7  -4  -6    5.10    0.40
  -7  -4  -6    4.20    0.60
  -7   4  -6    5.60    0.50
   7   4   6    5.40    0.30
   7   4   6    5.40    0.70
  -7   4  -6    5.10    0.30
  -9  -5   6    5.50    0.60
  -9  -5   6    5.10    0.60
  -9  -5   6    4.20    0.70
   9  -5  -6    5.70    0.90
   9  -5  -6    5.20    0.60
  -9   5   6    6.40    0.40
  -9   5   6    6.60    0.30
  -9   5   6    6.30    0.50
   9   5  -6    6.00    0.40
  -8  -5   6   72.09    3.00
  -8  -5   6   70.69    3.00
  -8  -5   6   75.39    3.00
   8  -5  -6   71.29    3.50
   8  -5  -6   70.39    3.50
   8  -5  -6   74.09    3.30
   8   5  -6   82.39    3.00
  -8   5   6   82.69    3.00
   8   5  -6   82.29    3.10
   8   5  -6   81.79    3.60
  -8   5   6   83.39    3.10
   8   5  -6   82.69    3.00
  -8   5   6   87.09    2.90
  -8   5   6   89.09    3.10
  -8   5   6   84.39    3.20
   8   5  -6   83.99    3.10
   7  -5  -6    8.20    1.50
  -7  -5   6    8.50    0.80
   7  -5  -6    9.30    1.10
   7  -5  -6    7.70    1.10
  -7  -5   6    7.60    1.20
  -7  -5   6    7.50    1.00
  -7  -5   6    8.30    0.60
  -7  -5   6    8.30    0.90
   7   5  -6   10.10    0.60
   7   5  -6    8.10    1.10
  -7   5   6    9.70    1.20
  -7   5   6   10.10    0.50
  -7   5   6    9.60    0.70
  -7   5   6   12.30    0.80
  -7   5   6    8.70    0.90
   7   5  -6    9.70    0.70
   7   5  -6    9.40    0.70
   7   5  -6    9.70    0.80
  -7   5   6    9.50    0.60
  -6  -5   6  147.19    5.20
  -6  -5   6  149.09    5.60
  -6  -5   6  143.59    5.80
   6  -5  -6  143.59    6.30
   6  -5  -6  147.19    6.10
  -6  -5   6  149.29    6.00
  -6  -5   6  138.69    6.30
   6   5  -6  162.58    5.80
  -6   5   6  165.08    5.60
   6   5  -6  158.28    6.30
   6   5  -6  160.48    5.80
  -6   5   6  169.58    5.80
  -6   5   6  161.28    6.30
  -6   5   6  168.78    5.70
  -6   5   6  163.08    5.80
  -5  -5   6   22.60    2.20
  -5  -5   6   24.30    1.50
  -5  -5   6   25.20    1.50
   5  -5  -6   23.20    1.70
   5  -5  -6   24.50    1.80
   5  -5  -6   24.20    2.00
   5  -5  -6   22.00    1.40
  -5  -5   6   25.70    1.20
  -5  -5   6   24.00    1.70
  -5  -5   6   23.70    1.50
  -5  -5   6   23.90    1.10
   5   5  -6   25.60    1.30
   5   5  -6   29.30    1.80
   5   5  -6   27.40    1.30
  -5   5   6   27.40    1.10
  -5   5   6   27.10    1.30
  -5   5   6   27.70    1.20
  -5   5   6   29.30    1.80
  -5   5   6   27.10    1.20
   5   5  -6   26.40    1.20
  -4  -5   6   50.09    3.20
   4  -5  -6   52.89    2.90
  -4  -5   6   50.49    2.60
  -4  -5   6   52.49    2.60
  -4  -5   6   57.09    2.90
   4  -5  -6   55.19    2.60
  -4  -5   6   55.69    2.60
   4  -5  -6   57.09    3.00
   4  -5  -6   52.59    3.20
   4  -5  -6   62.69    2.90
  -4  -5   6   54.69    3.40
  -4   5   6   64.49    2.30
  -4   5   6   66.09    2.70
   4   5  -6   63.89    2.60
   4   5  -6   62.99    2.40
  -4   5   6   62.79    2.40
  -4   5   6   60.69    2.40
   4   5  -6   58.19    2.40
  -4   5   6   65.29    3.70
   4   5  -6   59.09    3.00
   3  -5  -6  160.98    7.40
  -3  -5   6  121.99    5.30
   3   5  -6  138.79    5.00
  -3   5   6  140.29    5.50
  -3   5   6  138.79    4.80
   3   5  -6  139.69    4.90
  -3   5   6  137.69    4.90
   3   5  -6  136.19    5.50
   2  -5  -6    7.90    1.20
   2  -5  -6    8.10    1.20
   2  -5  -6    8.90    1.90
   2  -5  -6    9.70    1.70
  -2  -5   6    6.50    1.40
  -2  -5   6    7.20    0.90
   2  -5  -6    7.10    1.10
  -2  -5   6    7.00    1.50
  -2  -5   6    5.50    1.80
  -2  -5   6    7.50    0.90
  -2   5   6    6.70    1.00
   2   5  -6    8.60    0.60
   2   5  -6    7.80    0.70
  -2   5   6    9.40    0.60
   2   5  -6    7.50    0.90
  -2   5   6    8.20    0.50
  -1  -5   6   44.00    4.00
   1  -5  -6   43.00    2.90
   1  -5  -6   42.40    2.80
  -1  -5   6   39.10    2.40
  -1  -5   6   35.60    2.00
   1   5  -6   39.40    1.70
  -1   5   6   34.90    2.20
  -1   5   6   38.00    1.60
  -1   5   6   38.00    1.50
   1   5  -6   38.00    1.60
   0  -5   6   34.40    1.90
   0  -5  -6   38.40    2.00
   0  -5  -6   37.40    2.30
   0  -5  -6   37.60    2.00
   0  -5  -6   41.70    2.70
   0  -5  -6   40.10    2.50
   0  -5   6   39.70    2.80
   0  -5   6   38.20    2.00
   0  -5   6   35.60    3.10
   0  -5  -6   41.80    2.00
   0  -5  -6   36.50    2.10
   0  -5   6   34.90    1.90
   0  -5   6   40.00    3.60
   0   5  -6   41.00    1.70
   0   5  -6   40.60    1.70
   0   5   6   41.40    1.60
   0   5   6   40.60    1.70
   0   5  -6   41.60    1.80
  -1  -5  -6  182.58    7.20
  -1  -5  -6  184.88    7.00
   1  -5   6  180.08    7.50
  -1  -5  -6  184.28    7.00
   1  -5   6  182.88    8.20
  -1  -5  -6  186.08    7.00
  -1  -5  -6  187.88    7.10
   1  -5   6  198.68    6.80
   1  -5   6  176.88    8.60
  -1   5  -6  214.78    7.60
  -1   5  -6  211.78    7.50
  -1   5  -6  206.48    7.30
  -1   5  -6  200.08    7.70
   1   5   6  217.08    7.40
   1   5   6  213.58    7.40
   1   5   6  218.28    7.30
  -1   5  -6  214.28    7.40
  -2  -5  -6   54.39    2.70
   2  -5   6   52.29    3.80
   2  -5   6   55.79    2.60
  -2  -5  -6   56.29    2.50
  -2  -5  -6   53.99    2.90
   2  -5   6   53.99    2.80
  -2  -5  -6   52.69    2.60
   2  -5   6   54.69    3.50
  -2  -5  -6   61.99    2.70
  -2  -5  -6   55.69    2.60
   2   5   6   61.99    2.40
  -2   5  -6   59.19    2.30
  -2   5  -6   61.89    2.60
  -2   5  -6   59.39    2.70
   2   5   6   60.89    2.40
  -2   5  -6   62.19    2.50
   2   5   6   62.89    2.30
  -2   5  -6   62.99    2.40
  -3  -5  -6   62.29    2.70
  -3  -5  -6   64.19    2.50
   3  -5   6   60.59    5.00
   3  -5   6   59.29    2.70
   3  -5   6   54.49    3.50
  -3  -5  -6   61.59    2.50
  -3  -5  -6   52.89    3.30
   3  -5   6   61.49    2.70
  -3   5  -6   67.89    2.60
  -3   5  -6   69.19    2.80
  -3   5  -6   70.29    2.70
  -3   5  -6   68.19    2.70
   3   5   6   68.49    2.60
  -3   5  -6   70.69    2.80
   3   5   6   66.99    2.60
   4  -5   6   10.80    1.30
  -4  -5  -6   11.30    0.90
  -4  -5  -6   10.90    0.80
  -4  -5  -6   11.80    0.80
   4  -5   6   11.20    1.00
  -4  -5  -6   12.20    1.00
   4  -5   6    9.90    1.60
   4  -5   6    9.40    1.40
   4   5   6   12.10    0.70
  -4   5  -6   12.80    0.80
   4   5   6   12.30    0.70
  -4   5  -6   12.60    0.80
  -4   5  -6   13.60    0.80
  -4   5  -6   11.70    0.90
  -4   5  -6   13.00    0.70
  -5  -5  -6    0.10    0.10
   5  -5   6   -0.10    1.80
  -5   5  -6    1.10    0.60
  -5   5  -6    0.20    0.20
   5   5   6    0.30    0.60
  -6  -5  -6   26.50    1.20
  -6  -5  -6   28.10    1.10
   6  -5   6   22.60    1.80
   6  -5   6   27.20    1.50
  -6  -5  -6   21.70    1.30
  -6   5  -6   35.70    1.20
  -6   5  -6   28.50    1.30
   6   5   6   29.30    1.30
   7  -6  -6   24.50    1.30
   7  -6  -6   24.20    1.50
  -7  -6   6   25.10    1.40
  -7  -6   6   25.00    1.20
  -7  -6   6   24.10    1.20
  -7   6   6   27.90    1.10
  -7   6   6   27.10    1.00
  -6  -6   6   42.90    1.80
  -6  -6   6   42.00    2.20
   6  -6  -6   43.30    2.30
  -6  -6   6   46.50    2.30
  -6   6   6   48.90    1.70
   6   6  -6   42.60    1.90
  -6   6   6   45.90    1.80
  -6   6   6   47.50    1.70
   5  -6  -6   29.90    1.60
   5  -6  -6   28.90    1.80
  -5  -6   6   28.90    1.40
   5  -6  -6   28.30    1.40
   5  -6  -6   28.90    1.70
  -5  -6   6   26.80    1.60
  -5  -6   6   32.20    1.90
  -5  -6   6   24.90    1.80
   5   6  -6   32.60    1.50
  -5   6   6   30.10    1.30
  -5   6   6   31.30    1.20
  -5   6   6   31.20    1.20
   5   6  -6   31.50    1.40
  -5   6   6   30.60    1.30
   4  -6  -6   55.19    2.70
  -4  -6   6   53.59    3.00
  -4  -6   6   55.89    2.50
  -4  -6   6   57.09    2.40
  -4  -6   6   57.49    2.40
  -4  -6   6   54.89    2.60
   4  -6  -6   56.19    2.90
   4  -6  -6   56.79    2.70
   4  -6  -6   59.99    2.70
  -4  -6   6   56.29    2.80
   4   6  -6   58.59    2.20
   4   6  -6   58.09    2.30
  -4   6   6   64.29    2.10
  -4   6   6   56.59    2.30
  -4   6   6   60.39    2.20
   3  -6  -6    8.00    0.90
  -3  -6   6    8.90    0.70
  -3  -6   6    7.40    1.20
  -3  -6   6    7.90    0.90
   3  -6  -6    8.70    0.90
  -3  -6   6    8.20    1.20
   3  -6  -6    8.20    1.00
   3  -6  -6    8.80    0.80
  -3  -6   6    9.20    0.90
  -3   6   6    9.90    0.50
   3   6  -6    8.10    0.90
   3   6  -6    8.70    0.60
  -3   6   6    8.80    0.50
  -2  -6   6   74.89    3.20
   2  -6  -6   75.99    3.30
   2  -6  -6   73.89    3.40
  -2  -6   6   74.49    3.00
  -2  -6   6   74.19    3.70
   2  -6  -6   74.69    3.40
   2  -6  -6   76.09    3.00
  -2  -6   6   77.69    3.20
   2  -6  -6   76.59    3.30
  -2  -6   6   74.69    3.90
   2   6  -6   79.89    3.00
  -2   6   6   78.59    2.80
   2   6  -6   79.99    3.10
   2   6  -6   80.09    2.90
  -2   6   6   79.69    2.90
  -1  -6   6    2.10    0.90
   1  -6  -6    2.60    0.60
   1  -6  -6    2.60    0.60
  -1  -6   6    1.80    0.80
   1  -6  -6    2.50    0.50
   1  -6  -6    1.80    0.60
  -1  -6   6    1.80    0.60
  -1  -6   6    2.20    0.40
  -1  -6   6    2.20    0.90
   1   6  -6    1.70    0.40
  -1   6   6    1.20    0.30
  -1   6   6    2.80    0.60
   1   6  -6    2.20    0.40
   1   6  -6    1.90    0.40
   0  -6  -6   18.80    1.30
   0  -6  -6   19.70    1.20
   0  -6   6   19.10    1.20
   0  -6   6   17.90    1.70
   0  -6  -6   19.00    1.30
   0  -6   6   20.30    1.10
   0  -6  -6   20.10    1.10
   0  -6  -6   18.80    1.40
   0  -6   6   19.20    1.80
   0  -6   6   18.30    1.20
   0  -6   6   18.40    1.50
   0   6   6   21.20    1.10
   0   6  -6   21.20    1.00
   0   6   6   21.60    1.20
   0   6   6   20.50    1.00
   0   6  -6   20.60    1.00
   0   6  -6   21.60    1.00
  -1  -6  -6   21.30    1.30
  -1  -6  -6   21.70    1.30
  -1  -6  -6   21.30    1.40
   1  -6   6   18.30    1.80
  -1  -6  -6   21.50    1.20
   1  -6   6   21.40    1.30
   1  -6   6   21.00    1.50
  -1  -6  -6   21.60    1.30
  -1  -6  -6   21.00    1.50
   1  -6   6   19.70    1.70
  -1   6  -6   23.70    1.10
  -1   6  -6   23.50    1.00
  -1   6  -6   22.20    1.00
   1   6   6   22.40    1.30
  -1   6  -6   22.10    1.10
   2  -6   6   29.30    2.50
   2  -6   6   27.10    1.40
  -2  -6  -6   22.00    1.60
  -2  -6  -6   26.10    1.50
   2  -6   6   26.90    1.50
  -2  -6  -6   27.00    1.50
   2  -6   6   22.20    2.20
  -2  -6  -6   26.80    1.30
  -2  -6  -6   27.20    1.20
  -2   6  -6   28.40    1.40
  -2   6  -6   31.20    1.20
   3  -6   6   29.20    1.60
  -3  -6  -6   30.20    1.40
  -3  -6  -6   29.80    1.40
  -3  -6  -6   32.50    1.30
  -3  -6  -6   30.80    1.50
   3  -6   6   30.00    1.70
   3  -6   6   28.60    2.00
  -3  -6  -6   29.90    1.30
  -3   6  -6   32.10    1.20
  -3   6  -6   31.10    1.40
 -13   0   7   11.20    0.70
 -13   0   7   11.60    0.70
 -12   0   7   17.50    0.90
 -12   0   7   18.20    1.00
 -12   0   7   18.00    1.20
  12   0  -7   19.60    1.10
  12   0  -7   16.60    1.80
  12   0  -7   17.80    1.00
 -11   0   7   32.50    1.60
  11   0  -7   31.70    1.60
 -11   0   7   31.70    1.80
 -11   0   7   32.50    1.60
  11   0  -7   31.50    1.80
 -10   0   7  191.48    6.90
 -10   0   7  194.98    7.30
  10   0  -7  182.78    6.90
  10   0  -7  187.18    6.80
 -10   0   7  188.98    6.80
  -9   0   7   14.10    1.30
   9   0  -7   15.20    1.20
  -9   0   7   13.40    1.00
   9   0  -7   13.40    1.00
   9   0  -7   14.20    0.70
  -9   0   7   14.30    1.00
   8   0  -7   -8.00   23.90
  -7   0   7   51.39    3.60
   7   0  -7   51.39    3.40
   7   0  -7   45.40    2.10
  -7   0   7   49.70    4.20
  -7   0   7   51.09    2.50
   6   0  -7  -15.80   12.80
   6   0  -7   22.80    1.50
  -6   0   7   28.10    2.30
  -6   0   7   23.70    2.30
  -6   0   7   21.20    1.50
  -6   0   7   22.40    2.00
   6   0  -7   25.20    2.30
  -5   0   7  345.27   12.90
   5   0  -7  354.56   12.70
  -5   0   7  344.97   13.10
  -5   0   7  329.77   11.80
  -5   0   7  336.57   12.10
   5   0  -7  337.37   12.00
  -5   0   7  331.47   12.40
  -5   0   7  342.17   12.50
  -4   0   7  363.66   12.50
   4   0  -7  356.16   12.60
   4   0  -7  360.56   13.10
  -4   0   7  345.97   12.90
  -4   0   7  360.96   12.70
  -4   0   7  358.36   13.30
  -4   0   7  381.26   13.10
  -4   0   7  337.87   12.50
  -3   0   7   58.09    2.70
  -3   0   7   59.59    3.10
  -3   0   7   57.19    2.90
  -3   0   7   70.59    2.70
   3   0  -7   57.09    3.20
   2   0  -7  366.86   13.40
  -2   0   7  361.16   12.90
  -2   0   7  376.56   13.50
  -2   0   7  358.26   13.00
   2   0  -7  369.06   13.00
   2   0  -7  380.36   13.50
  -1   0   7  103.89    4.70
  -1   0   7   99.89    4.20
   1   0  -7  103.89    4.20
  -1   0   7  102.49    4.10
   1   0  -7  105.89    4.40
   1   0  -7  101.19    4.20
   0   0   7  130.89    5.30
   0   0   7  139.39    5.90
   0   0  -7  132.09    5.40
   0   0  -7  132.39    5.40
   0   0  -7  133.69    5.40
   0   0   7  139.69    4.90
   0   0   7  136.39    5.30
   1   0   7   57.99    2.40
  -1   0  -7   56.49    3.80
  -1   0  -7   60.89    3.00
  -1   0  -7   61.39    3.10
   1   0   7   63.99    2.90
  -1   0  -7   62.89    3.10
   1   0   7   58.69    3.10
  -2   0  -7    4.10    1.00
  -2   0  -7    6.10    1.60
  -2   0  -7    6.30    2.00
   2   0   7  -17.60   11.40
  -2   0  -7    0.20    1.40
   2   0   7   -0.50    1.30
   2   0   7    5.10    1.20
   3   0   7   32.00    2.10
   3   0   7   32.90    2.20
  -3   0  -7   32.40    2.10
   3   0   7   34.30    1.50
  -3   0  -7   30.80    2.90
  -3   0  -7   34.90    2.30
   4   0   7    1.80    0.90
   4   0   7    6.90   20.50
   5   0   7   20.80    1.80
   5   0   7   21.80    1.30
  -5   0  -7   20.90    1.70
   5   0   7   19.50    1.50
   5   0   7   17.20    1.30
  -5   0  -7   19.90    1.30
   5   0   7   20.30    0.90
  -5   0  -7   21.20    1.40
  -6   0  -7   28.70    2.00
  -6   0  -7   26.40    1.50
   6   0   7   28.70    1.60
  -6   0  -7   27.70    1.60
   6   0   7   26.30    1.60
   6   0   7   27.70    2.10
   6   0   7   25.50    1.50
  -7   0  -7   44.10    2.10
  -7   0  -7   48.00    2.10
   7   0   7   48.50    2.20
  -7   0  -7   46.60    2.10
  -7   0  -7   43.10    2.40
   7   0   7   45.30    2.70
  -8   0  -7   70.29    3.40
   8   0   7   73.39    2.90
  -8   0  -7   88.59    3.20
  12  -1  -7   17.50    1.70
 -12  -1   7   19.40    0.90
 -12  -1   7   18.80    1.00
  12  -1  -7   18.50    1.10
 -12   1   7   18.40    1.00
 -12   1   7   18.60    1.00
  12   1  -7   19.40    1.00
  11  -1  -7   50.39    2.30
  11  -1  -7   52.79    2.90
  11  -1  -7   52.79    2.20
 -11  -1   7   53.39    2.50
 -11   1   7   51.09    2.20
 -11   1   7   51.79    2.20
 -11   1   7   53.79    2.10
 -11   1   7   50.19    2.60
  11   1  -7   53.19    1.90
 -10  -1   7   32.30    1.80
 -10  -1   7   31.20    1.60
  10  -1  -7   31.10    1.60
  10  -1  -7   30.40    1.70
 -10  -1   7   31.20    1.50
  10   1  -7  -20.10   18.50
  10   1  -7   31.80    1.60
 -10   1   7   32.60    1.50
 -10   1   7   31.70    2.00
  10   1  -7   31.70    1.50
 -10   1   7   30.80    1.60
 -10   1   7   30.60    1.60
  10   1  -7   32.90    1.30
   9  -1  -7   46.20    2.10
   9  -1  -7   44.00    2.20
  -9  -1   7   47.70    2.10
  -9  -1   7   47.40    2.40
  -9  -1   7   47.00    2.10
  -9   1   7   50.99    2.70
   9   1  -7   51.39    2.10
  -9   1   7   48.00    2.20
   9   1  -7   49.80    2.30
  -9   1   7   47.60    2.30
  -9   1   7   51.99    2.20
   9   1  -7   50.39    2.00
   9   1  -7   48.50    2.20
   8  -1  -7  193.58    7.10
  -8  -1   7  195.48    7.10
  -8  -1   7  204.28    7.50
  -8  -1   7  192.98    7.00
  -8   1   7  207.38    8.00
   8   1  -7  204.78    7.20
  -8   1   7  202.98    7.00
  -8   1   7  207.38    7.40
   8   1  -7  206.58    7.10
   8   1  -7  213.08    7.40
   8   1  -7  199.78    7.40
  -7  -1   7   25.40    3.00
  -7  -1   7   26.70    1.60
   7  -1  -7   32.10    3.10
  -7  -1   7   25.80    3.10
  -7   1   7   24.20    2.20
  -7   1   7   28.00    1.70
   7   1  -7   25.00    2.50
   7   1  -7   22.30    2.60
  -7   1   7   27.40    2.70
   7   1  -7   27.50    1.30
   7   1  -7   31.60    4.80
   7   1  -7   25.80    1.30
   7   1  -7   26.30    1.20
  -7   1   7   25.30    1.10
  -7   1   7   -2.40   11.10
   6  -1  -7   69.99    4.00
  -6  -1   7   74.19    3.20
  -6  -1   7   73.89    4.20
  -6  -1   7   69.49    3.90
  -6  -1   7   68.99    4.10
  -6   1   7   70.49    3.30
   6   1  -7   74.09    2.70
  -6   1   7   69.99    3.60
   6   1  -7   77.99    2.90
   6   1  -7   68.09    3.80
  -6   1   7   71.39    2.70
  -6   1   7   76.09    4.00
   6   1  -7   73.89    3.00
   6   1  -7   68.79    3.50
  -6   1   7   74.69    3.00
  -5  -1   7   47.10    3.10
  -5  -1   7   51.39    3.10
  -5  -1   7   51.99    2.40
  -5  -1   7   50.09    2.40
   5  -1  -7   53.19    3.70
  -5   1   7   51.59    3.00
  -5   1   7   49.90    1.90
  -5   1   7   51.59    2.50
   5   1  -7   50.59    3.00
   5   1  -7   49.50    2.00
   5   1  -7   50.59    2.10
  -5   1   7   51.39    2.30
   5   1  -7   51.69    2.40
  -5   1   7   48.80    3.00
   5   1  -7   53.49    2.70
  -5   1   7   49.80    2.00
  -4  -1   7  263.27   10.00
  -4  -1   7  247.58    9.80
   4  -1  -7  264.67   10.00
  -4  -1   7  248.38    9.20
  -4  -1   7  256.37    9.10
  -4   1   7  266.17    9.40
   4   1  -7  252.47    9.30
   4   1  -7  263.37    9.40
  -4   1   7  251.97    8.70
  -4   1   7  254.77    9.80
  -4   1   7  255.87    9.60
   4   1  -7  251.37    8.80
  -4   1   7  258.67    8.80
  -4   1   7  263.27    9.10
   4   1  -7  254.67    8.90
   4   1  -7  254.37    9.70
   3  -1  -7   33.00    1.80
  -3  -1   7   32.90    1.80
  -3  -1   7   31.80    2.40
   3  -1  -7   31.90    2.30
  -3  -1   7   28.90    2.20
  -3  -1   7   32.80    1.70
   3   1  -7   33.20    1.90
  -3   1   7   31.80    1.60
  -3   1   7   31.70    1.40
   3   1  -7   31.90    1.70
   3   1  -7   32.70    1.30
   3   1  -7   33.70    2.30
   3   1  -7   30.90    2.30
  -3   1   7   32.10    1.30
  -3   1   7   31.80    2.00
  -3   1   7   32.10    1.80
   3   1  -7   31.70    1.40
  -3   1   7   32.10    2.20
   2  -1  -7   86.09    4.20
  -2  -1   7   82.69    3.80
  -2  -1   7   83.79    4.30
  -2  -1   7   85.09    3.50
  -2  -1   7   83.19    3.30
  -2  -1   7   86.89    3.60
  -2   1   7   90.09    4.00
   2   1  -7   86.29    3.20
  -2   1   7   86.99    3.10
  -2   1   7   86.39    3.70
   2   1  -7   86.59    3.30
  -2   1   7   87.19    3.20
   2   1  -7   87.29    3.60
   2   1  -7   87.39    4.10
   2   1  -7   83.89    4.00
  -2   1   7   87.29    3.50
   2   1  -7   89.59    3.80
   1  -1  -7  316.27   11.60
  -1  -1   7  325.07   12.40
  -1  -1   7  328.57   11.60
   1  -1  -7  319.97   11.60
  -1  -1   7  322.87   11.20
  -1  -1   7  317.57   11.50
   1   1  -7  319.17   10.90
  -1   1   7  326.77   11.80
   1   1  -7  314.57   11.40
  -1   1   7  313.47   10.80
  -1   1   7  321.67   10.90
   1   1  -7  319.57   11.00
   1   1  -7  322.87   11.70
   1   1  -7  325.17   11.50
  -1   1   7  312.17   11.50
  -1   1   7  324.97   11.30
   1   1  -7  317.27   11.80
   0  -1   7  505.35   17.40
   0  -1  -7  464.05   18.90
   0  -1  -7  488.85   17.90
   0  -1   7  505.65   17.90
   0  -1   7  571.14   18.90
   0   1  -7  491.25   17.00
   0   1   7  488.85   17.30
   0   1  -7  481.85   17.10
   0   1   7  477.65   16.20
   0   1   7  470.15   16.70
   0   1  -7  484.25   16.90
   0   1  -7  485.75   17.30
   0   1   7  461.35   16.90
   0   1   7  480.85   16.30
   0   1  -7  480.05   16.30
   0   1   7  490.65   17.30
   0   1  -7  487.55   16.40
  -1  -1  -7  351.96   18.00
   1  -1   7  396.56   14.00
  -1  -1  -7  393.86   13.90
  -1  -1  -7  387.86   14.00
   1  -1   7  385.36   13.90
  -1  -1  -7  399.46   14.10
  -1   1  -7  391.26   13.50
  -1   1  -7  399.76   14.50
   1   1   7  397.36   13.90
  -1   1  -7  402.16   14.30
   1   1   7  391.26   14.40
   1   1   7  390.26   14.10
   1   1   7  393.76   13.30
   1   1   7  382.96   14.40
  -1   1  -7  388.36   14.20
   1   1   7  391.76   13.40
  -1   1  -7  390.16   14.10
  -2  -1  -7  102.19    4.80
  -2  -1  -7  102.49    4.60
   2  -1   7   99.99    4.40
  -2  -1  -7   92.79    5.70
   2  -1   7  101.99    4.50
  -2  -1  -7   99.29    4.40
  -2   1  -7  118.99    6.10
  -2   1  -7  104.69    4.70
   2   1   7  101.59    4.60
   2   1   7  102.99    3.80
   2   1   7  102.79    3.90
   2   1   7  104.69    5.00
  -2   1  -7  102.09    4.60
  -2   1  -7   98.29    3.80
   2   1   7  102.69    4.50
  -2   1  -7  103.19    5.00
  -3  -1  -7   96.59    5.80
  -3  -1  -7   86.59    6.20
   3  -1   7  100.09    4.50
   3   1   7   89.69    5.50
   3   1   7   98.79    3.60
  -3   1  -7   90.69    4.80
  -3   1  -7   98.79    4.70
   3   1   7   95.19    4.20
   3   1   7   94.99    4.40
   3   1   7   92.79    3.60
  -3   1  -7   95.99    4.40
   4  -1   7  268.17   10.30
  -4  -1  -7  271.77   10.20
   4   1   7  277.57   10.70
   4   1   7  280.97    9.70
   4   1   7  279.17    9.80
   4   1   7  297.67    9.90
   4   1   7  264.87   10.50
  -4   1  -7  267.87   10.70
  -4   1  -7  270.67   10.20
   4   1   7  278.57    9.70
  -4   1  -7  283.37   10.40
  -5  -1  -7   63.49    2.70
  -5  -1  -7   60.99    2.80
   5  -1   7   60.79    3.70
   5  -1   7   58.79    2.70
   5  -1   7   64.49    2.70
   5  -1   7   57.89    2.70
   5   1   7   66.39    2.90
   5   1   7   57.39    2.90
   5   1   7   65.19    2.40
  -5   1  -7   75.99    4.70
  -5   1  -7   61.79    2.80
   5   1   7   63.39    2.60
  -5   1  -7   65.19    2.80
   5   1   7   64.29    2.70
  -5   1  -7   62.29    2.90
  -6  -1  -7   82.69    3.30
  -6  -1  -7   83.59    3.50
  -6  -1  -7   82.49    3.70
   6  -1   7   81.89    3.40
   6  -1   7   79.49    3.30
   6  -1   7   84.09    4.00
  -6  -1  -7   83.69    3.40
  -6   1  -7   88.19    3.50
   6   1   7   95.69    4.80
  -6   1  -7   86.69    4.20
  -6   1  -7   86.09    3.60
  -6   1  -7   83.59    3.60
   6   1   7   90.19    3.60
   6   1   7   88.79    3.20
   7  -1   7   16.10    1.00
   7  -1   7   15.60    1.50
   7  -1   7   15.20    1.00
  -7  -1  -7   16.00    0.90
  -7  -1  -7   14.30    0.90
  -7  -1  -7   15.10    1.00
  -7  -1  -7   14.70    1.20
  -7   1  -7   18.20    1.70
  -7   1  -7   17.10    1.10
   7   1   7   16.70    1.10
   7   1   7   16.80    0.80
  -7   1  -7   16.30    1.10
  -8  -1  -7    6.70    0.60
   8  -1   7    7.50    0.60
  -8  -1  -7    6.50    0.50
  -8  -1  -7    7.60    0.60
   8   1   7    6.70    0.60
  -8   1  -7    6.30    0.60
  -8   1  -7    7.40    0.60
  12  -2  -7   22.80    1.60
 -12  -2   7   24.50    1.00
 -12  -2   7   25.20    1.00
  12  -2  -7   23.90    1.20
 -12   2   7   23.00    1.20
  12   2  -7   26.50    1.00
 -12   2   7   22.40    1.20
 -12   2   7   26.00    1.10
  12   2  -7   27.30    1.20
  11  -2  -7  162.68    5.70
  11  -2  -7  152.58    6.40
 -11  -2   7  144.99    5.90
 -11  -2   7  167.98    5.50
  11  -2  -7  154.38    6.40
 -11  -2   7  165.08    5.50
 -11  -2   7  138.59    5.70
  11   2  -7  179.58    6.30
  11   2  -7  179.28    6.10
 -11   2   7  177.58    6.10
  11   2  -7  165.58    6.60
 -11   2   7  169.48    7.00
  11   2  -7  168.28    6.20
  11   2  -7  179.68    6.00
  11   2  -7  168.58    6.10
 -10  -2   7   46.30    2.30
  10  -2  -7   48.30    2.10
  10  -2  -7   49.20    2.80
 -10  -2   7   43.70    2.30
 -10  -2   7   46.40    1.90
 -10  -2   7   46.30    2.00
 -10   2   7   51.69    3.00
  10   2  -7   51.09    2.30
  10   2  -7   52.39    2.00
  10   2  -7   50.99    2.20
 -10   2   7   51.59    2.20
  10   2  -7   51.59    2.10
  10   2  -7   50.29    2.20
  -9  -2   7  331.47   11.80
  -9  -2   7  318.97   11.70
  -9  -2   7  350.06   12.00
   9  -2  -7  320.37   12.50
   9   2  -7  322.17   11.20
   9   2  -7  323.97   11.10
  -9   2   7  300.47   11.80
   9   2  -7  316.87   11.10
   9   2  -7  343.67   11.80
   9   2  -7  310.27   11.20
  -9   2   7  333.17   11.40
  -8  -2   7   24.20    1.80
  -8  -2   7   31.30    1.50
  -8  -2   7   33.60    1.80
  -8  -2   7   29.50    1.40
   8  -2  -7   30.20    1.60
   8   2  -7   33.90    1.50
  -8   2   7   33.30    1.30
   8   2  -7   31.70    1.60
   8   2  -7   31.90    1.40
   8   2  -7   34.50    1.60
   8   2  -7   33.30    1.50
  -8   2   7   32.80    1.40
  -8   2   7   33.60    1.60
  -8   2   7    5.30    9.40
  -8   2   7   32.00    2.10
  -7  -2   7   27.40    1.70
  -7  -2   7   27.00    1.60
  -7  -2   7   26.50    1.70
  -7  -2   7   28.00    5.30
  -7  -2   7   29.60    1.80
   7  -2  -7   24.60    1.80
   7  -2  -7   29.50    4.00
  -7   2   7   26.30    3.50
  -7   2   7   26.50    1.20
  -7   2   7   26.70    1.20
  -7   2   7   28.00    1.60
  -7   2   7   29.20    1.60
  -7   2   7   31.00    2.40
   7   2  -7   26.10    1.30
   7   2  -7   28.20    1.40
   7   2  -7   27.40    1.40
   7   2  -7   30.60    4.20
  -7   2   7   28.20    1.30
  -7   2   7   27.80    1.20
   7   2  -7   27.10    3.40
  -6  -2   7  236.48    8.60
  -6  -2   7  234.28   10.00
  -6  -2   7  236.98    8.60
   6  -2  -7  227.48    9.70
   6   2  -7  242.08    8.30
   6   2  -7  241.08    8.40
  -6   2   7  242.08    8.30
   6   2  -7  243.78    8.30
   6   2  -7  227.28    9.40
  -6   2   7  231.08    9.60
  -6   2   7  241.08    8.70
   6   2  -7  236.98    9.30
  -6   2   7  246.18    8.20
  -6   2   7  240.68    9.40
  -6   2   7  245.98    8.20
  -6   2   7  224.48    8.90
  -5  -2   7  132.09    6.60
  -5  -2   7  128.69    6.40
  -5  -2   7  135.09    5.20
   5  -2  -7  142.19    6.30
   5   2  -7  139.59    5.90
   5   2  -7  132.69    5.40
   5   2  -7  142.79    5.00
  -5   2   7  137.69    6.40
  -5   2   7  137.79    5.00
  -5   2   7  128.89    6.00
  -5   2   7  158.18    7.20
   5   2  -7  143.09    5.60
  -5   2   7  154.38    5.30
   5   2  -7  139.79    5.10
  -5   2   7  143.29    4.90
  -5   2   7  141.29    5.40
   5   2  -7  133.49    6.00
  -4  -2   7   35.20    1.80
  -4  -2   7   35.40    1.80
   4  -2  -7   37.50    2.90
  -4  -2   7   30.00    2.80
   4   2  -7   39.40    1.50
   4   2  -7   32.00    2.30
   4   2  -7   39.40    2.00
   4   2  -7   34.60    2.60
  -4   2   7   35.40    1.50
  -4   2   7   41.40    2.40
   4   2  -7   33.60    1.60
  -4   2   7   35.20    2.50
  -4   2   7   35.10    2.10
  -4   2   7   41.00    1.50
  -4   2   7   36.60    1.60
   4   2  -7   40.90    2.60
  -4   2   7   35.40    2.00
   3   2  -7   34.80    2.30
  -3   2   7   38.50    1.80
   3   2  -7   32.50    2.60
  -3   2   7   40.50    2.40
  -3   2   7   36.50    1.50
  -3   2   7   43.50    2.70
   3   2  -7   35.20    1.50
  -3   2   7   36.30    3.00
   3   2  -7   34.80    1.90
  -3   2   7   36.30    1.40
   3   2  -7   36.50    1.60
   2  -2  -7  576.14   20.90
  -2  -2   7  466.35   17.80
  -2  -2   7  487.55   18.20
  -2  -2   7  497.35   17.60
  -2   2   7  523.55   17.40
   2   2  -7  539.45   18.70
   2   2  -7  502.15   18.00
   2   2  -7  506.05   18.40
  -2   2   7  529.75   17.80
  -2   2   7  520.55   17.50
   2   2  -7  512.75   17.50
   2   2  -7  513.75   18.90
   2   2  -7  524.25   17.40
  -2   2   7  509.95   18.20
   2   2  -7  502.75   18.30
  -1  -2   7  139.19    6.10
   1  -2  -7  143.39    6.10
   1  -2  -7  145.49    5.60
  -1  -2   7  144.29    5.70
   1  -2  -7  150.18    7.40
  -1  -2   7  143.89    6.00
   1  -2  -7  144.49    5.90
   1   2  -7  147.09    5.80
   1   2  -7  150.68    6.10
  -1   2   7  152.88    5.20
   1   2  -7  144.79    5.40
   1   2  -7  148.09    5.30
  -1   2   7  150.98    5.60
   1   2  -7  147.49    6.20
  -1   2   7  151.18    6.10
  -1   2   7  151.18    5.30
   0  -2  -7   21.80    2.80
   0  -2   7   20.30    1.20
   0  -2  -7   19.00    1.40
   0  -2  -7   20.20    1.70
   0  -2   7   19.10    1.40
   0  -2   7   18.90    2.70
   0  -2  -7   19.70    2.20
   0   2  -7   21.30    1.00
   0   2  -7   19.70    1.50
   0   2   7   20.50    2.20
   0   2   7   21.10    1.00
   0   2  -7   22.50    1.10
   0   2  -7   21.00    1.80
   0   2   7   21.40    1.30
   0   2  -7   19.20    1.80
   0   2  -7   22.80    2.20
   0   2   7   21.00    1.00
   0   2   7   20.90    1.30
   0   2   7   20.90    2.10
   1  -2   7  284.07   10.40
   1  -2   7  269.57   10.00
   1  -2   7  277.27   10.70
  -1  -2  -7  308.17   12.30
  -1  -2  -7  279.87   10.30
  -1  -2  -7  271.87   10.70
  -1  -2  -7  291.77   14.60
  -1   2  -7  283.07   10.80
   1   2   7  288.77    9.80
   1   2   7  288.97   10.30
  -1   2  -7  286.37    9.80
  -1   2  -7  270.77   11.60
  -1   2  -7  288.07   12.40
  -1   2  -7  290.57   10.90
  -1   2  -7  281.97    9.90
   1   2   7  286.57    9.90
  -1   2  -7  285.37    9.90
  -1   2  -7  277.07   10.50
   1   2   7  284.77    9.70
  -2  -2  -7  246.98    9.50
  -2  -2  -7  260.97   12.80
   2  -2   7  245.38    9.30
  -2  -2  -7  271.67   11.30
   2  -2   7  273.87   10.40
  -2   2  -7  255.97    8.90
  -2   2  -7  250.97   11.00
   2   2   7  261.47    8.90
  -2   2  -7  235.78   10.70
   2   2   7  248.18    9.40
  -2   2  -7  250.97    9.60
   2   2   7  261.07    8.80
  -2   2  -7  257.37   10.00
  -2   2  -7  253.87    9.00
  -2   2  -7  252.07   10.40
  -2   2  -7  255.97    8.90
   2   2   7  271.27    9.00
   3  -2   7  311.17   11.50
  -3  -2  -7  296.97   12.00
  -3  -2  -7  298.17   10.90
   3  -2   7  306.57   11.00
   3  -2   7  303.37   10.90
  -3  -2  -7  317.57   11.20
   3  -2   7  330.27   11.60
  -3  -2  -7  301.27   10.80
   3   2   7  368.46   12.10
   3   2   7  331.97   11.80
  -3   2  -7  329.77   11.70
   3   2   7  322.07   12.10
  -3   2  -7  338.87   11.40
   3   2   7  341.27   11.70
   3   2   7  335.07   11.50
   3   2   7  323.37   11.40
  -3   2  -7  328.97   12.70
  -3   2  -7  322.17   12.30
   4  -2   7  787.12   26.90
  -4  -2  -7  816.62   27.30
   4  -2   7  825.92   27.70
  -4  -2  -7  788.42   27.00
  -4  -2  -7  802.52   27.30
   4  -2   7  790.22   27.00
  -4  -2  -7  794.72   26.90
  -4  -2  -7  744.43   27.30
  -4  -2  -7  782.72   27.10
   4   2   7  862.61   29.40
  -4   2  -7  851.11   28.90
   4   2   7  859.81   28.90
  -4   2  -7  843.72   30.30
  -4   2  -7  841.42   29.00
  -4   2  -7  900.31   29.50
   4   2   7  858.01   29.10
   4   2   7  890.21   29.20
  -5  -2  -7   12.00    1.10
   5  -2   7   13.60    1.30
  -5  -2  -7   12.80    1.20
  -5  -2  -7   12.60    1.00
   5  -2   7   11.20    1.00
  -5  -2  -7   11.90    1.00
   5  -2   7   12.30    0.90
  -5  -2  -7   11.70    0.90
  -5  -2  -7   11.90    0.90
  -5   2  -7   12.80    1.60
  -5   2  -7   12.90    1.00
  -5   2  -7   12.70    1.30
   5   2   7   13.70    0.80
   5   2   7   13.10    1.10
   5   2   7   13.30    0.90
  -5   2  -7   12.60    1.30
   5   2   7   15.30    0.90
  -5   2  -7   14.30    0.70
  -6  -2  -7    1.20    0.40
   6  -2   7    1.60    0.50
  -6  -2  -7    1.50    0.40
   6  -2   7    2.40    0.90
   6   2   7    2.20    0.60
   6   2   7    3.40    0.90
   6   2   7    2.40    0.30
  -6   2  -7    3.00    1.00
  -6   2  -7    1.40    0.50
  -6   2  -7    2.40    0.60
  -7  -2  -7   11.40    0.80
   7  -2   7   10.10    1.20
  -7  -2  -7   10.10    0.70
   7  -2   7   10.20    0.80
  -7  -2  -7   11.00    0.70
   7   2   7    8.60    0.90
   7   2   7   11.70    0.60
   7   2   7   10.70    0.70
  -7   2  -7   10.60    0.90
  -7   2  -7   10.60    0.80
  -7   2  -7   10.60    1.40
  -7   2  -7   11.40    0.80
   8  -2   7    5.60    1.10
   8  -2   7    5.50    0.50
   8  -2   7    5.50    0.90
  -8  -2  -7    6.10    0.50
  -8   2  -7    6.90    0.60
   8   2   7    7.90    0.50
  -8   2  -7    6.90    0.70
   8   2   7    6.20    0.50
 -11  -3   7   56.99    2.20
  11  -3  -7   50.79    2.90
 -11  -3   7   50.39    2.00
 -11  -3   7   52.19    2.00
  11  -3  -7   52.69    2.70
  11  -3  -7   61.99    2.50
 -11  -3   7   52.29    2.20
 -11   3   7   71.59    2.90
  11   3  -7   62.29    2.50
  11   3  -7   55.89    2.70
  11   3  -7   63.39    2.40
  11   3  -7   70.39    3.40
  10  -3  -7   10.00    1.30
 -10  -3   7   10.60    0.60
 -10  -3   7   11.10    0.60
  10  -3  -7   12.40    1.70
 -10  -3   7    9.10    1.00
  10  -3  -7   10.10    0.80
 -10  -3   7   10.50    0.90
 -10   3   7   11.90    1.70
 -10   3   7   11.30    0.80
 -10   3   7   11.20    0.50
  10   3  -7   11.10    0.70
  10   3  -7   10.80    0.80
  10   3  -7   11.60    0.60
  10   3  -7    9.80    0.80
  10   3  -7   11.00    1.10
  10   3  -7   11.40    0.80
  -9  -3   7   15.20    0.80
   9  -3  -7   15.90    1.60
  -9  -3   7   14.70    1.10
  -9  -3   7   16.00    1.30
  -9  -3   7   14.10    1.60
  -9  -3   7   15.00    0.80
   9  -3  -7   15.00    1.00
   9  -3  -7   12.50    1.60
  -9   3   7   16.40    1.00
   9   3  -7   17.70    1.10
  -9   3   7   15.60    1.30
  -9   3   7   15.70    0.80
  -9   3   7   16.10    0.90
  -9   3   7   16.10    0.70
   9   3  -7   16.00    0.80
   9   3  -7   16.00    0.90
   9   3  -7   16.60    1.00
   9   3  -7   16.00    1.10
  -8  -3   7  174.88    7.70
   8  -3  -7  152.88    6.80
  -8   3   7  159.28    5.90
  -8   3   7  170.18    6.20
  -8   3   7  161.28    6.00
  -8   3   7  164.08    6.40
  -8   3   7  185.28    6.80
  -8   3   7  182.08    6.10
   8   3  -7  163.98    6.00
   8   3  -7  170.88    6.20
   8   3  -7  163.88    6.10
   7  -3  -7  102.49    3.90
  -7  -3   7  105.69    4.50
  -7  -3   7   97.59    4.10
  -7  -3   7   98.09    3.80
   7  -3  -7  103.19    4.80
  -7  -3   7   97.29    3.70
   7  -3  -7  100.09    5.00
  -7  -3   7  103.89    4.30
  -7   3   7  110.69    4.30
   7   3  -7  112.69    4.20
   7   3  -7  114.89    4.10
   7   3  -7  107.29    4.00
  -7   3   7  113.59    4.10
  -7   3   7  112.99    4.10
  -7   3   7  114.69    4.60
  -7   3   7  113.39    3.90
   7   3  -7  114.19    4.20
  -7   3   7  113.69    4.00
   7   3  -7  105.69    4.30
  -6  -3   7   43.80    2.00
  -6  -3   7   45.30    2.70
   6  -3  -7   47.00    2.30
   6  -3  -7   48.10    2.90
  -6  -3   7   42.10    2.20
  -6  -3   7   45.20    2.00
  -6  -3   7   47.30    2.40
   6  -3  -7   40.20    3.10
   6   3  -7   47.20    2.30
  -6   3   7   47.70    2.20
  -6   3   7   50.89    2.00
  -6   3   7   52.19    2.10
   6   3  -7   51.29    2.20
   6   3  -7   50.39    2.10
  -6   3   7   51.69    2.00
   6   3  -7   52.39    2.00
  -6   3   7   50.19    1.90
   6   3  -7   48.00    2.00
  -5   3   7  381.76   13.20
   5   3  -7  394.56   13.90
   5   3  -7  392.56   13.20
   5   3  -7  398.86   13.40
  -5   3   7  393.66   13.10
  -5   3   7  393.76   13.20
  -5   3   7  375.56   14.30
   5   3  -7  382.16   13.30
   5   3  -7  379.36   14.40
  -5   3   7  385.86   13.70
   4  -3  -7  457.55   18.90
  -4  -3   7  469.15   16.20
  -4  -3   7  466.55   17.80
   4   3  -7  504.35   17.80
  -4   3   7  503.65   17.10
   4   3  -7  520.65   17.30
  -4   3   7  518.25   17.70
  -4   3   7  517.75   19.10
   4   3  -7  483.15   21.40
   4   3  -7  528.85   17.20
   4   3  -7  485.05   19.50
   4   3  -7  491.95   17.20
  -4   3   7  507.75   17.20
  -4   3   7  512.85   17.10
  -3  -3   7   69.69    4.60
  -3  -3   7   70.99    3.00
   3  -3  -7   67.89    5.30
  -3   3   7   77.39    2.70
   3   3  -7   71.79    3.80
   3   3  -7   74.49    3.40
   3   3  -7   76.29    4.50
  -3   3   7   75.09    2.80
   3   3  -7   74.29    2.90
  -3   3   7   70.99    3.70
  -3   3   7   76.79    3.20
  -3   3   7   71.39    2.70
   3   3  -7   74.79    2.90
   3   3  -7   75.39    2.80
  -2   3   7  148.69    5.40
  -2   3   7  160.08    5.90
  -2   3   7  157.88    5.40
   2   3  -7  153.18    5.50
   2   3  -7  154.78    5.40
  -2   3   7  149.88    6.50
   2   3  -7  143.39    7.00
  -2   3   7  155.18    5.30
   2   3  -7  153.48    6.00
   2   3  -7  153.18    6.50
   2   3  -7  157.58    5.60
  -1  -3   7  164.28    6.30
  -1  -3   7  162.08    6.20
   1  -3  -7  161.58    7.70
   1  -3  -7  171.48    8.70
   1   3  -7  179.88    6.20
   1   3  -7  166.58    7.10
   1   3  -7  173.58    6.80
  -1   3   7  183.88    6.10
   1   3  -7  174.18    6.20
  -1   3   7  178.58    6.20
  -1   3   7  174.28    6.10
   1   3  -7  178.78    6.30
   1   3  -7  160.08    7.70
  -1   3   7  172.78    7.30
  -1   3   7  176.28    6.60
   0  -3  -7   61.39    5.40
   0  -3  -7   59.09    4.50
   0  -3   7   57.89    3.70
   0  -3   7   56.69    2.80
   0  -3   7   53.99    2.60
   0   3  -7   60.89    4.00
   0   3   7   60.59    2.40
   0   3   7   58.89    4.10
   0   3  -7   55.19    4.30
   0   3  -7   60.69    2.50
   0   3  -7   60.49    3.00
   0   3   7   60.99    2.80
   0   3   7   60.69    2.30
   0   3   7   58.89    2.50
   0   3  -7   62.09    2.50
   0   3  -7   64.39    5.90
  -1  -3  -7  181.88    8.60
  -1  -3  -7  155.78    9.40
   1  -3   7  151.38    6.20
   1  -3   7  150.18    6.00
  -1   3  -7  164.88    6.00
   1   3   7  162.38    5.70
   1   3   7  160.48    5.80
   1   3   7  164.68    5.90
  -1   3  -7  167.78    5.80
   1   3   7  156.38    6.20
  -1   3  -7  154.48    6.50
  -1   3  -7  176.08    9.70
  -1   3  -7  164.08    5.90
   2  -3   7  198.28    7.40
   2  -3   7  180.78    7.50
  -2  -3  -7  158.18    7.00
   2  -3   7  185.98    7.50
   2  -3   7  173.88    7.10
  -2  -3  -7  201.08    9.20
  -2  -3  -7  181.88    7.60
  -2  -3  -7  194.48    7.90
  -2   3  -7  210.68    7.10
  -2   3  -7  190.68    7.10
  -2   3  -7  191.68    7.00
   2   3   7  193.18    6.90
   2   3   7  193.18    7.60
   2   3   7  195.78    7.60
   2   3   7  178.68    6.80
   2   3   7  188.98    6.90
  -2   3  -7  190.68    6.90
   2   3   7  194.58    7.00
  -2   3  -7  225.58    8.40
  -3  -3  -7  176.58    7.30
  -3  -3  -7  182.28    6.60
  -3  -3  -7  179.88    6.60
  -3  -3  -7  182.38    7.10
   3  -3   7  192.18    7.20
   3  -3   7  187.28    6.70
   3  -3   7  182.58    8.20
   3  -3   7  183.48    6.80
  -3  -3  -7  190.38    6.80
  -3  -3  -7  178.88    6.90
   3  -3   7  185.48    6.90
   3   3   7  209.58    7.40
   3   3   7  212.48    7.50
  -3   3  -7  204.78    7.20
  -3   3  -7  211.08    7.70
  -3   3  -7  207.18    7.40
  -3   3  -7  206.68    7.50
  -3   3  -7  208.28    7.40
   3   3   7  212.78    7.30
   3   3   7  205.58    7.20
   3   3   7  199.88    7.60
  -4  -3  -7  106.39    4.30
   4  -3   7  107.39    4.60
   4  -3   7  105.99    4.10
  -4  -3  -7  107.69    4.50
  -4  -3  -7  105.29    4.00
  -4  -3  -7  103.49    4.50
   4  -3   7  104.29    5.20
  -4  -3  -7  111.49    4.20
  -4  -3  -7  106.29    4.00
   4  -3   7  103.69    4.20
   4   3   7  117.29    4.30
  -4   3  -7  116.29    4.40
   4   3   7  118.89    4.40
  -4   3  -7  115.99    4.40
  -4   3  -7  118.49    4.30
  -4   3  -7  121.69    4.70
   4   3   7  119.69    4.70
   4   3   7  127.99    5.10
  -4   3  -7  121.79    5.70
   4   3   7  119.89    4.40
  -4   3  -7  118.39    4.60
   5  -3   7   29.10    1.50
  -5  -3  -7   30.60    1.60
   5  -3   7   24.80    2.00
  -5  -3  -7   29.30    1.60
  -5  -3  -7   29.50    1.70
   5  -3   7   32.60    2.40
  -5  -3  -7   30.40    1.50
   5  -3   7   29.90    1.50
  -5  -3  -7   29.20    1.70
  -5  -3  -7   29.20    1.50
  -5   3  -7  -26.40   27.50
  -5   3  -7   33.10    1.30
  -5   3  -7   31.90    2.50
   5   3   7   33.80    1.70
   5   3   7   34.00    1.50
  -5   3  -7   31.40    1.40
  -5   3  -7   35.30    1.80
   5   3   7   33.50    1.40
   6  -3   7   89.39    4.00
  -6  -3  -7  100.89    3.70
  -6  -3  -7   98.39    3.60
   6  -3   7  101.49    3.80
   6  -3   7   91.79    5.00
  -6  -3  -7  101.39    3.70
  -6  -3  -7  103.39    3.50
  -6  -3  -7   96.29    3.80
  -6   3  -7  113.59    4.20
   6   3   7  112.49    3.90
   6   3   7  111.99    4.20
   6   3   7  110.59    4.20
   6   3   7  106.49    4.10
   6   3   7  112.39    4.10
  -6   3  -7  109.29    3.80
  -7  -3  -7    1.50    0.40
   7  -3   7    4.50    2.00
   7  -3   7    1.60    0.40
   7  -3   7    2.10    0.80
   7   3   7    1.90    0.40
   7   3   7    1.50    0.40
   7   3   7    2.20    0.30
  -7   3  -7    1.60    0.30
  10  -4  -7   11.60    0.70
  10  -4  -7   10.50    1.00
 -10  -4   7   11.70    0.80
  10  -4  -7    9.90    1.10
 -10  -4   7   11.50    0.90
  10  -4  -7   12.60    1.30
 -10   4   7   13.30    0.70
 -10   4   7   13.50    0.50
 -10   4   7   12.40    0.80
  10   4  -7   11.70    0.80
  10   4  -7   10.10    1.20
  10   4  -7   13.70    0.60
  10   4  -7   14.30    0.90
  10   4  -7   12.30    0.70
   9  -4  -7   83.59    3.70
   9  -4  -7   80.39    3.70
   9  -4  -7   80.89    3.00
  -9  -4   7   79.09    3.20
   9  -4  -7   74.99    3.80
  -9  -4   7   78.59    3.40
  -9   4   7   89.79    3.20
  -9   4   7   87.29    3.10
  -9   4   7   88.59    3.40
  -9   4   7  104.79    3.50
   9   4  -7   88.19    3.40
  -9   4   7   92.89    3.50
   9   4  -7   86.79    3.20
   9   4  -7   87.29    3.40
   9   4  -7   87.49    3.30
   9   4  -7   89.39    3.90
   9   4  -7   92.29    3.40
  -8  -4   7  119.69    4.90
   8  -4  -7  114.19    5.20
   8  -4  -7  121.09    4.50
   8  -4  -7  123.89    5.20
  -8  -4   7  127.69    7.10
  -8  -4   7  111.09    4.70
   8   4  -7  135.09    4.90
  -8   4   7  130.89    4.90
  -8   4   7  130.19    4.70
   8   4  -7  151.08    5.20
  -8   4   7  133.89    4.70
   8   4  -7  136.89    5.50
  -8   4   7  130.79    4.70
  -8   4   7  131.79    5.40
   8   4  -7  135.89    4.90
   8   4  -7  128.39    4.90
   8   4  -7  136.59    4.90
  -8   4   7  133.39    4.80
   7  -4  -7   99.29    4.30
   7  -4  -7  100.89    4.50
  -7  -4   7   95.19    4.00
   7  -4  -7   90.79    4.60
  -7  -4   7   95.29    4.30
   7  -4  -7   92.29    3.60
  -7  -4   7   95.19    3.90
   7  -4  -7   97.89    4.50
  -7  -4   7   91.89    4.80
  -7   4   7  109.39    3.90
   7   4  -7  109.89    3.90
   7   4  -7  110.09    4.10
  -7   4   7  107.89    3.80
   7   4  -7  109.59    4.00
   7   4  -7  102.99    3.80
  -7   4   7  105.49    4.40
  -7   4   7  106.59    3.90
  -7   4   7  109.69    4.00
  -7   4   7  103.79    4.00
   7   4  -7  101.99    4.10
   7   4  -7  104.89    4.60
  -6  -4   7  253.37    9.60
   6  -4  -7  223.28    9.60
  -6  -4   7  258.47   10.00
  -6  -4   7  229.58    8.80
  -6   4   7  260.07    8.90
   6   4  -7  253.67    9.00
   6   4  -7  262.07    9.70
   6   4  -7  257.47    9.00
  -6   4   7  253.17    9.40
   6   4  -7  258.47    8.90
  -6   4   7  259.87    8.80
  -6   4   7  256.77    8.80
  -6   4   7  249.97    8.90
   5  -4  -7  224.48    8.60
  -5  -4   7  209.88    9.20
   5  -4  -7  218.38    7.70
   5  -4  -7  205.98    8.80
  -5  -4   7  225.28    8.50
   5  -4  -7  219.98    8.70
  -5  -4   7  215.18    8.00
  -5  -4   7  223.18    8.10
  -5   4   7  251.37    8.50
  -5   4   7  251.17    9.20
   5   4  -7  251.27    8.70
   5   4  -7  251.57    9.30
   5   4  -7  254.97    8.60
   5   4  -7  235.98    8.50
  -5   4   7  239.98    8.40
  -5   4   7  254.27    8.50
  -5   4   7  249.97    8.60
   5   4  -7  244.78    8.60
  -5   4   7  237.28    8.70
  -4  -4   7  320.17   12.90
   4  -4  -7  327.57   12.40
  -4  -4   7  324.77   11.60
  -4  -4   7  338.17   11.70
   4  -4  -7  336.57   12.20
  -4  -4   7  344.27   12.10
   4  -4  -7  336.27   11.30
  -4  -4   7  310.97   12.70
   4  -4  -7  310.17   12.40
   4   4  -7  378.46   12.70
  -4   4   7  383.26   12.50
  -4   4   7  355.76   12.40
   4   4  -7  361.26   12.90
   4   4  -7  368.76   13.30
  -4   4   7  369.86   12.50
   4   4  -7  365.96   12.60
   4   4  -7  374.76   12.60
  -4   4   7  380.66   13.20
  -4   4   7  342.17   12.70
  -4   4   7  371.36   12.60
  -3  -4   7  305.57   10.80
  -3  -4   7  307.27   10.80
   3  -4  -7  305.67   11.60
  -3  -4   7  294.27   11.90
   3  -4  -7  303.47   11.50
   3  -4  -7  304.37   11.20
  -3  -4   7  305.57   11.10
  -3  -4   7  288.77   12.00
  -3   4   7  349.57   12.20
   3   4  -7  348.77   11.80
  -3   4   7  341.37   11.70
   3   4  -7  337.37   12.30
  -3   4   7  330.77   11.60
  -3   4   7  345.77   11.60
   3   4  -7  316.57   11.70
   3   4  -7  352.06   11.70
   2  -4  -7   21.50    1.70
  -2  -4   7   19.90    1.40
  -2  -4   7   22.20    2.20
   2  -4  -7   19.90    1.80
  -2  -4   7   23.10    1.40
  -2  -4   7   20.50    2.30
   2  -4  -7   18.10    1.60
  -2   4   7   25.60    1.20
  -2   4   7   25.60    1.10
   2   4  -7   25.70    1.20
   2   4  -7   26.90    1.80
   2   4  -7   25.60    1.30
  -2   4   7   24.00    1.10
  -2   4   7   25.80    1.60
   2   4  -7   25.20    1.30
  -1  -4   7  397.86   13.60
  -1  -4   7  381.96   14.60
   1  -4  -7  375.76   14.00
  -1  -4   7  393.06   13.40
  -1  -4   7  387.56   13.30
  -1  -4   7  379.36   14.50
   1  -4  -7  410.36   14.20
  -1  -4   7  364.66   15.10
  -1  -4   7  389.26   13.20
   1  -4  -7  378.46   13.70
   1  -4  -7  379.66   13.80
   1  -4  -7  375.16   14.30
   1   4  -7  456.75   15.00
  -1   4   7  449.56   14.70
  -1   4   7  439.16   15.20
   1   4  -7  437.86   14.90
  -1   4   7  439.06   14.70
   1   4  -7  398.86   14.80
  -1   4   7  442.46   14.80
   1   4  -7  426.26   15.40
   1   4  -7  398.76   15.70
   1   4  -7  448.36   14.80
   0  -4  -7    3.10    0.90
   0  -4   7    4.50    1.30
   0  -4  -7    3.40    0.90
   0  -4   7    5.00    0.70
   0  -4   7    3.80    1.50
   0  -4   7    3.90    1.50
   0  -4   7    4.50    0.70
   0  -4  -7    4.80    1.10
   0  -4  -7    4.20    0.90
   0  -4  -7    4.60    0.90
   0  -4   7    5.50    0.80
   0  -4   7    3.80    0.60
   0   4  -7    6.20    0.60
   0   4  -7    5.20    0.50
   0   4  -7    6.20    0.60
   0   4   7    6.10    0.50
   0   4   7    4.30    1.10
   0   4   7    5.50    0.50
   0   4  -7    6.60    0.80
   0   4   7    6.90    0.60
   0   4  -7    5.90    0.60
  -1  -4  -7   24.60    1.60
   1  -4   7   29.20    1.70
  -1  -4  -7   26.00    1.70
   1  -4   7   25.80    1.40
   1  -4   7   28.90    1.40
   1  -4   7   25.90    1.40
   1  -4   7   23.30    2.70
  -1  -4  -7   27.40    1.70
  -1  -4  -7   25.50    1.70
  -1  -4  -7   26.00    2.00
   1  -4   7   22.20    2.00
   1  -4   7   26.70    2.70
  -1   4  -7   30.90    1.60
  -1   4  -7   29.70    1.70
   1   4   7   32.50    1.60
  -1   4  -7   33.50    1.60
   1   4   7   31.00    1.40
  -1   4  -7   30.50    1.50
  -1   4  -7   30.00    1.40
   1   4   7   32.10    1.50
   2  -4   7   72.09    5.60
   2  -4   7   86.09    3.70
   2  -4   7   78.89    6.10
  -2  -4  -7   98.79    5.40
  -2  -4  -7   71.49    4.10
   2  -4   7   88.99    3.60
   2  -4   7   78.89    5.00
  -2  -4  -7   85.79    3.90
   2  -4   7   90.19    3.60
   2   4   7   97.39    3.60
  -2   4  -7  104.99    3.80
  -2   4  -7  103.39    3.80
  -2   4  -7  101.19    4.00
   2   4   7   91.19    4.00
   2   4   7  103.19    3.70
   2   4   7   96.29    3.90
  -2   4  -7  104.39    4.30
  -3  -4  -7    7.30    0.80
  -3  -4  -7    8.50    0.70
   3  -4   7    7.80    0.70
   3  -4   7    6.90    1.40
   3  -4   7    7.10    1.70
   3  -4   7    8.40    0.70
  -3  -4  -7    7.10    1.00
  -3  -4  -7    7.30    0.90
  -3  -4  -7    5.80    0.80
   3  -4   7    8.20    0.90
   3   4   7   10.00    0.80
   3   4   7    8.70    0.60
  -3   4  -7    9.30    0.60
  -3   4  -7    9.70    0.70
  -3   4  -7    9.50    0.70
  -3   4  -7    9.40    0.80
   3   4   7    8.80    0.80
  -3   4  -7   10.90    0.90
   3   4   7    9.40    0.70
   3   4   7   10.80    0.70
  -4  -4  -7   15.50    1.50
  -4  -4  -7   16.30    1.00
   4  -4   7   14.70    1.60
   4  -4   7   18.70    1.60
   4  -4   7   17.30    2.60
  -4  -4  -7   16.10    1.20
  -4   4  -7   19.10    1.00
   4   4   7   18.40    0.90
   4   4   7   16.60    1.10
  -4   4  -7   19.10    1.00
  -4   4  -7   18.90    1.30
   4   4   7   19.30    1.00
   4   4   7   19.00    1.10
  -4   4  -7   18.90    1.00
  -5  -4  -7    3.50    0.50
   5  -4   7    1.30    0.40
   5  -4   7    3.60    1.70
   5  -4   7   -1.00    2.00
   5  -4   7    2.20    1.10
  -5  -4  -7    3.40    0.60
  -5  -4  -7    3.10    0.50
  -5  -4  -7    2.50    0.60
   5  -4   7    2.00    0.40
   5   4   7    3.80    0.40
  -5   4  -7    4.60    0.70
  -5   4  -7    4.00    0.40
  -5   4  -7    4.40    0.50
  -5   4  -7    4.10    0.30
   5   4   7    3.50    0.80
   5   4   7    3.80    0.50
   5   4   7    3.50    0.30
  -6  -4  -7   55.99    2.20
  -6  -4  -7   56.29    2.10
  -6  -4  -7   55.49    2.10
   6  -4   7   52.29    2.40
   6  -4   7   55.79    2.10
   6  -4   7   53.69    3.10
  -6   4  -7   61.59    2.10
   6   4   7   57.39    2.30
  -6   4  -7   64.69    2.40
   6   4   7   63.69    2.20
  -9  -5   7   48.90    2.00
   9  -5  -7   52.09    3.00
  -9  -5   7   48.90    2.10
   9  -5  -7   49.40    2.20
  -9   5   7   57.39    2.00
   9   5  -7   55.89    2.10
  -9   5   7   53.99    2.00
  -9   5   7   54.39    2.10
   8  -5  -7   17.70    1.40
  -8  -5   7   19.80    1.40
  -8  -5   7   16.30    1.40
   8  -5  -7   18.60    1.30
  -8   5   7   21.10    0.90
   8   5  -7   20.40    0.90
  -8   5   7   20.70    1.00
   8   5  -7   19.10    1.00
  -8   5   7   20.00    1.00
  -8   5   7   21.00    0.80
   8   5  -7   19.30    1.40
  -7  -5   7   28.70    1.60
   7  -5  -7   25.80    1.80
   7  -5  -7   25.10    1.70
  -7  -5   7   27.20    1.40
  -7  -5   7   26.30    2.00
  -7  -5   7   27.00    1.60
  -7   5   7   31.20    1.30
   7   5  -7   31.10    1.30
   7   5  -7   29.10    1.40
  -7   5   7   31.70    1.20
   7   5  -7   28.90    2.30
   7   5  -7   30.10    1.20
  -7   5   7   29.70    1.30
   7   5  -7   30.40    1.30
  -7   5   7   30.80    1.30
  -7   5   7   28.50    1.20
  -6  -5   7   12.50    1.70
  -6  -5   7   16.20    1.20
  -6  -5   7   15.40    1.10
   6  -5  -7   14.20    1.40
   6  -5  -7   14.70    1.30
   6  -5  -7   14.10    1.70
  -6  -5   7   12.80    1.60
  -6   5   7   16.70    0.70
   6   5  -7   16.60    0.90
   6   5  -7   18.10    1.00
   6   5  -7   17.40    1.60
  -6   5   7   17.00    0.90
  -6   5   7   15.30    0.90
   6   5  -7   16.40    0.80
  -6   5   7   15.80    0.90
   6   5  -7   16.30    1.10
  -6   5   7   16.30    1.40
  -6   5   7   17.40    0.80
   5  -5  -7   30.10    1.90
  -5  -5   7   30.20    1.60
   5  -5  -7   30.50    1.90
  -5  -5   7   29.20    1.90
   5  -5  -7   28.10    2.10
  -5  -5   7   28.60    1.70
  -5  -5   7   27.80    2.30
   5   5  -7   31.50    2.00
   5   5  -7   32.10    1.50
  -5   5   7   34.50    1.40
  -5   5   7   34.50    1.40
  -5   5   7   33.00    1.30
  -5   5   7   33.40    1.90
  -5   5   7   32.50    1.60
  -5   5   7   34.60    1.50
   5   5  -7   34.00    1.50
   5   5  -7   33.00    1.40
   4  -5  -7   19.40    1.70
  -4  -5   7   20.30    1.30
  -4  -5   7   20.60    1.90
  -4  -5   7   20.50    1.30
  -4  -5   7   17.70    2.00
  -4  -5   7   19.30    1.50
  -4  -5   7   17.90    1.20
   4  -5  -7   19.40    1.50
   4  -5  -7   19.60    1.60
  -4   5   7   23.50    1.00
   4   5  -7   22.20    1.10
  -4   5   7   27.20    1.90
   4   5  -7   22.60    1.30
  -4   5   7   21.30    0.90
  -4   5   7   22.80    1.10
  -4   5   7   23.10    1.10
   4   5  -7   22.90    1.20
   4   5  -7   23.00    1.10
   4   5  -7   22.80    1.70
   3  -5  -7   83.89    3.90
   3  -5  -7   79.09    3.90
   3  -5  -7   83.99    3.80
  -3  -5   7   81.09    4.30
  -3  -5   7   82.59    3.60
   3  -5  -7   85.09    3.80
  -3  -5   7   83.39    3.40
   3  -5  -7   75.89    3.30
  -3  -5   7   82.89    4.40
  -3  -5   7   79.19    3.50
  -3   5   7   92.19    3.30
  -3   5   7   95.99    3.40
  -3   5   7   96.69    3.50
   3   5  -7   94.59    3.60
   3   5  -7   88.49    3.60
   3   5  -7   95.89    3.50
  -3   5   7   93.49    4.00
   3   5  -7   95.59    3.60
   3   5  -7   97.39    4.70
  -3   5   7   95.39    3.40
  -2  -5   7  198.78    6.90
   2  -5  -7  169.28    6.70
  -2  -5   7  167.98    7.40
   2  -5  -7  172.18    6.30
  -2  -5   7  165.38    7.60
  -2  -5   7  170.38    6.50
   2  -5  -7  167.18    6.90
   2  -5  -7  166.48    6.90
   2  -5  -7  169.08    7.00
  -2  -5   7  174.58    6.40
  -2   5   7  193.18    6.70
  -2   5   7  197.28    7.30
   2   5  -7  199.08    7.00
  -2   5   7  192.58    6.80
   2   5  -7  194.78    6.80
   2   5  -7  192.28    6.90
  -2   5   7  193.08    6.70
   2   5  -7  191.48    6.70
   1  -5  -7   95.09    3.40
  -1  -5   7   83.69    3.50
   1  -5  -7   79.59    3.50
  -1  -5   7   80.99    4.60
   1  -5  -7   83.59    3.80
   1  -5  -7   81.99    4.00
  -1  -5   7   82.09    4.20
   1  -5  -7   82.09    3.60
  -1  -5   7   78.79    4.50
   1  -5  -7   81.99    3.70
  -1  -5   7   83.19    3.50
  -1  -5   7   86.19    3.40
   1   5  -7   96.09    3.70
   1   5  -7   96.79    3.70
  -1   5   7   96.79    3.50
  -1   5   7  105.29    4.90
  -1   5   7   95.59    3.50
  -1   5   7   95.79    3.60
   1   5  -7   95.19    3.50
   1   5  -7   95.09    3.60
   0  -5   7  360.06   12.30
   0  -5   7  354.76   12.00
   0  -5  -7  340.87   12.60
   0  -5  -7  339.37   12.30
   0  -5  -7  353.06   12.40
   0  -5   7  338.87   12.90
   0  -5   7  337.57   13.60
   0  -5  -7  356.66   12.30
   0  -5   7  335.07   13.70
   0  -5  -7  351.46   12.30
   0  -5  -7  337.37   12.80
   0   5   7  395.56   13.40
   0   5   7  389.36   13.40
   0   5  -7  360.96   13.80
   0   5  -7  395.56   13.40
   0   5  -7  408.16   13.50
   0   5   7  400.86   13.30
   0   5  -7  406.36   13.60
   0   5  -7  388.96   13.30
  -1  -5  -7  119.49    4.90
  -1  -5  -7  129.89    5.40
   1  -5   7  125.29    6.40
  -1  -5  -7  137.49    5.10
  -1  -5  -7  125.79    5.00
   1  -5   7  114.89    5.90
  -1  -5  -7  119.09    5.00
   1  -5   7  120.09    6.20
   1  -5   7  123.89    4.80
   1   5   7  139.89    4.90
  -1   5  -7  137.59    5.00
   1   5   7  139.39    5.00
   1   5   7  141.99    5.00
  -1   5  -7  140.59    5.10
  -1   5  -7  141.29    5.10
  -1   5  -7  134.89    5.20
   2  -5   7   14.80    1.20
   2  -5   7   16.60    1.10
  -2  -5  -7   15.00    1.10
  -2  -5  -7   15.20    1.10
   2  -5   7   14.00    1.60
  -2  -5  -7   16.00    1.30
   2  -5   7   15.10    1.90
  -2  -5  -7   14.90    0.90
  -2  -5  -7   15.30    1.10
   2   5   7   17.80    0.90
  -2   5  -7   16.90    0.80
   2   5   7   17.80    0.80
   2   5   7   17.70    0.90
  -2   5  -7   16.70    1.00
  -2   5  -7   16.70    0.90
   3  -5   7   99.39    4.60
  -3  -5  -7  105.59    4.30
  -3  -5  -7  101.49    4.00
  -3  -5  -7  104.59    4.00
   3  -5   7   97.49    5.20
   3  -5   7  103.29    4.00
  -3   5  -7   97.69    4.50
   3   5   7  106.39    4.00
  -3   5  -7  113.29    3.90
   3   5   7  113.59    3.80
  -3   5  -7  114.19    4.00
  -3   5  -7  113.69    4.10
  -3   5  -7  101.49    4.10
   3   5   7  112.89    4.00
  -4  -5  -7    8.20    0.80
  -4  -5  -7    6.80    0.70
  -4  -5  -7    6.60    0.50
   4  -5   7    6.00    0.90
  -4  -5  -7    8.40    0.90
   4  -5   7    8.10    1.50
   4   5   7    8.10    0.40
  -4   5  -7    7.40    0.60
  -4   5  -7    8.80    0.50
   4   5   7    7.90    0.50
  -4   5  -7    7.30    0.50
   5  -5   7    0.80    0.50
  -5  -5  -7    1.50    0.50
  -5  -5  -7    1.30    0.30
  -5   5  -7    1.00    0.30
  -5   5  -7    1.00    0.20
   5   5   7    0.70    0.20
   6  -6  -7   41.50    2.00
   6  -6  -7   42.40    2.10
   6  -6  -7   43.10    2.00
  -6  -6   7   41.90    1.90
  -6  -6   7   43.10    1.70
  -6  -6   7   41.20    2.10
   6   6  -7   45.10    1.70
  -6   6   7   46.10    1.60
   6   6  -7   44.20    1.80
  -6   6   7   50.39    1.80
  -5  -6   7   12.80    1.00
   5  -6  -7    9.40    1.10
   5  -6  -7   12.50    1.00
  -5  -6   7    9.30    1.10
   5  -6  -7   12.30    0.90
  -5  -6   7   11.80    0.80
   5   6  -7   11.80    0.70
  -5   6   7   13.40    0.60
  -5   6   7   12.20    0.50
   5   6  -7   12.70    0.60
   4  -6  -7    2.90    0.70
  -4  -6   7    2.40    0.60
  -4  -6   7    3.30    1.00
  -4  -6   7    2.40    0.70
  -4  -6   7    2.10    0.70
   4  -6  -7    3.90    0.80
   4  -6  -7    2.60    0.60
  -4  -6   7    3.40    0.50
  -4   6   7    3.80    0.40
   4   6  -7    2.80    0.50
  -4   6   7    3.40    0.30
   4   6  -7    3.20    0.40
  -4   6   7    2.50    0.30
   3  -6  -7   27.90    2.30
  -3  -6   7   31.20    1.40
  -3  -6   7   30.80    1.60
   3  -6  -7   31.70    1.80
  -3  -6   7   32.00    1.60
  -3  -6   7   28.00    2.00
   3  -6  -7   33.00    1.70
  -3  -6   7   29.50    2.10
   3   6  -7   31.90    1.50
   3   6  -7   34.60    1.30
  -3   6   7   32.50    1.20
  -2  -6   7   28.40    1.50
  -2  -6   7   30.20    1.40
   2  -6  -7   29.40    1.60
  -2  -6   7   29.30    2.10
  -2  -6   7   30.10    2.00
   2  -6  -7   24.50    2.10
   2  -6  -7   28.90    2.20
  -2  -6   7   31.70    1.70
   2  -6  -7   28.80    1.70
   2   6  -7   32.70    1.60
   2   6  -7   30.60    1.50
  -2   6   7   29.40    1.30
   2   6  -7   31.80    1.20
  -1  -6   7   62.59    3.10
  -1  -6   7   62.89    2.50
   1  -6  -7   64.59    2.90
  -1  -6   7   61.49    2.70
   1  -6  -7   65.29    2.80
   1  -6  -7   65.39    2.90
  -1  -6   7   60.79    3.30
  -1  -6   7   65.39    2.50
  -1  -6   7   61.89    3.10
   1  -6  -7   65.29    2.70
   1   6  -7   69.39    2.40
  -1   6   7   64.99    2.50
   1   6  -7   64.29    2.80
  -1   6   7   67.39    2.50
   1   6  -7   69.49    2.70
   0  -6  -7  105.99    4.20
   0  -6  -7  111.59    4.00
   0  -6  -7  111.29    4.10
   0  -6   7  104.39    4.00
   0  -6  -7   98.19    4.50
   0  -6   7   97.69    4.70
   0  -6   7  104.39    4.70
   0  -6  -7  109.69    3.90
   0   6   7  116.49    4.30
   0   6  -7  109.29    4.20
   0   6  -7  115.99    4.30
   0   6  -7  114.29    4.00
  -1  -6  -7   22.30    1.30
  -1  -6  -7   21.00    1.00
   1  -6   7   22.30    1.30
  -1  -6  -7   23.40    1.10
   1  -6   7   22.60    1.30
   1  -6   7   21.90    1.70
   1  -6   7   22.70    1.70
  -1  -6  -7   23.40    1.10
  -1  -6  -7   22.40    1.20
  -1   6  -7   24.20    1.10
  -1   6  -7   24.70    1.00
  -2  -6  -7   13.30    0.80
   2  -6   7   13.20    1.10
   2  -6   7   12.90    1.20
  -2  -6  -7   13.10    0.80
  -2  -6  -7   14.00    0.80
  -2  -6  -7   13.30    0.90
   2  -6   7   13.30    1.00
  -2   6  -7   14.10    0.60
  -2   6  -7   14.00    0.70
  12   0  -8   20.30    1.30
  12   0  -8   21.90    1.00
  12   0  -8   19.00    2.00
 -12   0   8   18.20    1.20
 -12   0   8   19.70    1.10
  11   0  -8  183.18    6.60
  11   0  -8  193.58    6.60
 -11   0   8  180.88    6.50
 -11   0   8  173.38    7.00
 -11   0   8  180.68    6.50
  10   0  -8   19.30    1.10
  10   0  -8   16.50    1.20
 -10   0   8   16.70    1.00
 -10   0   8   16.80    1.30
 -10   0   8   16.90    1.10
  -9   0   8    0.30    0.20
  -9   0   8    0.10    0.20
  -9   0   8    0.40    0.20
  -9   0   8   -0.30    0.20
   9   0  -8    0.20    0.30
  -7   0   8   57.99    4.30
  -7   0   8   62.49    4.20
  -7   0   8   53.79    3.70
  -7   0   8   60.79    2.90
   7   0  -8   54.69    4.00
   6   0  -8   44.90    2.30
  -6   0   8   43.50    3.50
  -6   0   8   41.00    3.30
   6   0  -8   38.30    3.10
  -6   0   8   41.70    3.00
  -6   0   8   40.90    2.30
  -5   0   8   14.10    2.00
   5   0  -8   12.20    2.00
  -5   0   8   11.50    1.00
   5   0  -8   -3.30   15.20
   5   0  -8   11.80    1.10
  -5   0   8   12.00    1.10
  -3   0   8   32.80    2.40
  -3   0   8   29.70    1.70
  -3   0   8   32.60    1.70
   3   0  -8   33.40    1.90
   3   0  -8   29.90    2.80
  -3   0   8   -3.20   15.00
  -3   0   8   34.10    1.90
   2   0  -8  131.19    5.20
  -2   0   8  113.09    4.70
   2   0  -8  129.19    5.10
  -2   0   8  128.19    5.10
  -2   0   8  128.79    5.00
  -1   0   8  159.28    6.30
  -1   0   8  160.98    7.40
  -1   0   8  162.58    6.20
   1   0  -8  158.48    6.40
   1   0  -8  158.38    6.30
   1   0  -8  163.28    6.40
   0   0   8   75.99    4.40
   0   0  -8   77.69    3.60
   0   0  -8   66.79    4.50
   0   0   8   79.49    3.60
   0   0  -8   79.69    3.80
   0   0   8   78.29    3.50
   0   0  -8   77.09    3.70
   1   0   8   64.19    3.20
  -1   0  -8   63.19    3.20
   1   0   8   63.09    3.10
  -1   0  -8   57.39    4.50
  -1   0  -8   62.69    3.60
  -1   0  -8   60.79    3.20
   1   0   8   27.90   15.00
  -2   0  -8    2.40    1.60
   2   0   8    9.00   16.70
   2   0   8    2.30    0.50
   3   0   8   32.70    1.90
  -3   0  -8   33.50    2.30
   3   0   8   32.50    2.20
   3   0   8   26.30    1.70
  -3   0  -8   31.80    2.00
   4   0   8   11.90    1.30
  -4   0  -8   12.80    1.10
   4   0   8   16.00    2.00
   4   0   8   14.50    0.70
   4   0   8   14.00    1.10
  -4   0  -8   13.90    1.10
   4   0   8   14.50    1.20
  -4   0  -8   16.80    1.90
  -5   0  -8   86.99    4.00
   5   0   8   76.39    3.40
   5   0   8   77.09    3.30
   5   0   8   82.29    4.00
   5   0   8   81.39    3.40
  -5   0  -8   83.09    3.50
  -5   0  -8   83.39    3.40
   6   0   8  136.19    5.00
   6   0   8  130.09    4.90
  -6   0  -8  126.69    5.00
  -6   0  -8  127.79    5.10
  -6   0  -8  129.99    5.40
  -7   0  -8    0.30    0.10
  -7   0  -8    0.00    0.20
   7   0   8    0.20    0.40
 -12  -1   8   19.80    1.00
  12  -1  -8   17.90    1.00
 -12  -1   8   16.40    1.30
  12   1  -8   19.00    1.00
 -12   1   8   19.70    1.00
 -12   1   8   18.90    1.00
 -11  -1   8   87.39    3.40
 -11  -1   8   88.99    3.70
  11  -1  -8   83.49    3.40
 -11  -1   8   87.49    3.40
  11  -1  -8  102.29    4.80
  11   1  -8   91.19    3.40
  11   1  -8   89.79    3.10
 -11   1   8   86.79    3.40
 -11   1   8   92.19    3.30
 -11   1   8   87.89    3.90
 -11   1   8   86.69    3.40
 -10  -1   8   13.00    0.90
  10  -1  -8   13.60    0.90
 -10  -1   8   13.70    1.10
  10  -1  -8   11.20    1.00
 -10  -1   8   13.90    0.90
  10   1  -8   -4.10   25.80
  10   1  -8   13.40    1.00
 -10   1   8   13.60    1.20
 -10   1   8   13.20    0.90
  10   1  -8   14.00    0.70
 -10   1   8   12.60    0.80
 -10   1   8   12.40    0.90
  -9  -1   8  235.58    8.60
  -9  -1   8  225.18    8.10
  -9  -1   8  225.38    8.20
   9  -1  -8  223.18    8.40
   9  -1  -8  233.48    8.30
  -9   1   8  238.38    9.30
  -9   1   8  276.27    9.60
  -9   1   8  225.68    8.80
   9   1  -8  235.88    8.80
  -9   1   8  271.27    9.10
   9   1  -8  236.78    8.40
   9   1  -8  246.18    9.10
   9   1  -8  244.58    8.60
  -8  -1   8   73.29    3.30
   8  -1  -8   68.69    2.90
   8  -1  -8   66.89    3.00
  -8  -1   8   67.89    2.80
  -8  -1   8   68.29    2.90
  -8   1   8   69.89    3.30
  -8   1   8   71.29    2.80
  -8   1   8   70.19    2.50
   8   1  -8   68.59    2.90
   8   1  -8   70.19    2.80
  -8   1   8   61.49    2.80
  -8   1   8   65.19    3.00
   8   1  -8   70.09    2.60
   8   1  -8   75.19    3.30
   8   1  -8   71.29    2.70
  -7  -1   8    7.30    1.00
  -7  -1   8    7.30    0.90
  -7  -1   8    6.80    0.90
  -7  -1   8    8.90    3.00
   7   1  -8    7.50    0.60
   7   1  -8    8.30    0.70
  -7   1   8    5.10    2.00
   7   1  -8    6.60    0.90
   7   1  -8    5.80    0.70
   7   1  -8    7.90    0.60
  -7   1   8    7.00    0.90
   7   1  -8    7.20    1.00
  -6  -1   8  292.37   12.30
  -6  -1   8  321.87   11.40
  -6  -1   8  327.37   11.40
  -6   1   8  313.77   12.60
  -6   1   8  310.57   12.50
   6   1  -8  328.07   11.20
  -6   1   8  322.87   11.00
   6   1  -8  318.67   12.40
   6   1  -8  326.27   11.10
   6   1  -8  333.97   11.90
   6   1  -8  320.97   11.60
  -6   1   8  322.77   11.80
   6   1  -8  321.07   11.00
  -6   1   8  324.07   11.40
  -5  -1   8   80.09    6.20
   5  -1  -8   95.19    5.20
  -5  -1   8   95.09    4.30
  -5  -1   8   90.69    5.20
  -5  -1   8   95.39    4.00
   5   1  -8   90.29    3.40
  -5   1   8   91.49    4.70
  -5   1   8   89.69    5.10
   5   1  -8   91.19    4.60
   5   1  -8   91.79    4.20
  -5   1   8   91.89    4.00
   5   1  -8   90.19    3.50
  -5   1   8   91.19    3.70
   5   1  -8   92.09    3.90
   5   1  -8   90.99    3.40
  -4  -1   8   40.20    3.10
   4  -1  -8   38.60    3.00
  -4  -1   8   40.90    3.20
  -4  -1   8   42.00    2.10
  -4  -1   8   39.00    2.10
   4   1  -8   48.60    3.00
   4   1  -8   47.00    3.00
  -4   1   8   39.70    1.60
   4   1  -8   38.80    3.90
  -4   1   8   41.20    2.20
  -4   1   8   38.40    1.70
   4   1  -8   40.20    1.80
   4   1  -8   40.10    1.70
   4   1  -8   40.40    2.50
   4   1  -8   43.50    1.70
  -4   1   8   40.30    1.70
  -4   1   8   39.30    2.60
  -4   1   8   42.50    2.90
  -3  -1   8  877.61   30.40
  -3  -1   8  874.91   30.50
  -3  -1   8  900.71   31.60
   3  -1  -8  876.91   31.30
   3  -1  -8  903.71   30.60
  -3  -1   8  926.51   30.60
   3   1  -8  868.91   30.90
   3   1  -8  838.62   31.10
   3   1  -8  873.71   29.90
  -3   1   8  884.61   30.20
  -3   1   8  928.71   30.90
  -3   1   8  889.51   29.70
  -3   1   8  893.01   29.80
   3   1  -8  918.01   30.60
   3   1  -8  923.91   29.90
   3   1  -8  881.31   29.80
  -3   1   8  874.51   29.80
  -2  -1   8  145.09    6.80
   2  -1  -8  151.38    5.90
  -2  -1   8  138.49    5.70
  -2  -1   8  152.28    5.90
   2   1  -8  150.88    6.30
  -2   1   8  148.99    5.20
   2   1  -8  149.79    6.00
   2   1  -8  141.09    5.30
   2   1  -8  146.39    5.40
   2   1  -8  148.59    6.40
   2   1  -8  143.59    5.80
  -2   1   8  146.59    5.30
  -2   1   8  158.48    6.30
  -2   1   8  151.78    6.30
   2   1  -8  149.09    6.10
  -2   1   8  149.69    5.70
  -2   1   8  152.88    5.30
   1  -1  -8  538.25   19.30
  -1  -1   8  536.85   19.90
  -1  -1   8  505.85   18.40
   1  -1  -8  559.34   19.00
   1  -1  -8  533.85   20.50
  -1  -1   8  551.24   18.90
  -1   1   8  610.94   20.80
   1   1  -8  554.04   19.60
   1   1  -8  545.85   19.80
  -1   1   8  540.75   18.90
   1   1  -8  555.24   18.90
   1   1  -8  553.84   19.80
  -1   1   8  557.74   18.80
   1   1  -8  543.85   18.90
  -1   1   8  587.74   20.50
   1   1  -8  527.95   18.80
   0  -1  -8  232.68    8.60
   0  -1  -8  229.68    8.80
   0  -1  -8  221.88   10.10
   0  -1   8  226.18    8.60
   0  -1   8  209.78    8.70
   0  -1   8  235.58    8.80
   0   1   8  227.48    8.10
   0   1  -8  230.08    8.70
   0   1   8  227.18    9.10
   0   1  -8  231.98    8.00
   0   1   8  223.98    9.30
   0   1  -8  231.68    9.40
   0   1   8  230.68    8.20
   0   1   8  226.88    8.80
   0   1   8  234.08    8.60
   0   1  -8  234.58    9.00
  -1  -1  -8  145.29    6.10
   1  -1   8  143.59    5.90
  -1  -1  -8  134.99    7.50
  -1  -1  -8  144.49    5.90
   1  -1   8  148.19    6.10
   1   1   8  143.99    5.30
  -1   1  -8  146.29    6.20
  -1   1  -8  146.19    5.30
   1   1   8  144.79    5.20
   1   1   8  147.69    5.90
  -1   1  -8  148.59    6.10
   1   1   8  143.59    6.10
   1   1   8  155.58    6.80
   1   1   8  146.99    5.30
  -1   1  -8  144.29    6.30
   2  -1   8 1690.23   56.29
   2  -1   8 1671.03   56.39
  -2  -1  -8 1613.04   56.49
  -2  -1  -8 1619.14   56.19
  -2  -1  -8 1684.63   56.49
  -2   1  -8 1685.73   58.99
   2   1   8 1697.33   57.79
   2   1   8 1689.63   58.59
   2   1   8 1645.34   57.89
   2   1   8 1952.80   60.49
   2   1   8 1593.44   59.09
   2   1   8 1679.13   57.79
  -2   1  -8 1685.63   58.79
  -2   1  -8 1968.20   61.29
   3  -1   8   51.99    2.80
   3  -1   8   57.29    2.60
  -3  -1  -8   55.69    2.60
   3  -1   8   59.09    3.30
   3  -1   8   57.39    3.10
  -3  -1  -8   57.19    2.50
  -3  -1  -8   56.69    3.00
   3  -1   8   52.89    2.50
  -3   1  -8   61.69    3.30
  -3   1  -8   66.79    3.20
  -3   1  -8   63.19    3.40
   3   1   8   58.69    3.30
   3   1   8   58.09    2.30
   3   1   8   59.19    2.50
  -3   1  -8   61.89    2.70
   3   1   8   58.19    2.60
  -3   1  -8   58.29    3.30
   3   1   8   62.49    3.20
   3   1   8   60.59    2.70
   4  -1   8  167.58    7.10
   4  -1   8  166.98    6.40
  -4  -1  -8  171.48    6.50
   4  -1   8  172.58    6.40
   4  -1   8  171.88    6.50
  -4  -1  -8  179.18    7.00
  -4  -1  -8  169.48    6.50
  -4  -1  -8  173.68    6.40
   4   1   8  187.18    6.20
   4   1   8  187.78    6.70
   4   1   8  176.18    6.30
  -4   1  -8  182.98    6.60
   4   1   8  169.88    7.10
  -4   1  -8  173.78    6.60
   4   1   8  167.18    7.40
  -4   1  -8  168.48    6.70
  -4   1  -8  179.38    7.50
   5  -1   8   54.79    2.50
   5  -1   8   59.09    3.10
  -5  -1  -8   57.49    2.90
   5  -1   8   52.59    2.40
  -5  -1  -8   57.79    2.60
   5  -1   8   57.19    2.50
  -5  -1  -8   57.79    2.50
  -5   1  -8   60.19    2.60
   5   1   8   60.59    2.40
   5   1   8   60.29    3.60
  -5   1  -8   57.59    2.60
  -5   1  -8   59.49    2.70
   5   1   8   62.29    2.70
   5   1   8   59.29    2.20
  -5   1  -8   58.09    3.20
  -6  -1  -8   27.20    1.50
   6  -1   8   29.50    1.40
  -6  -1  -8   26.00    1.80
  -6  -1  -8   29.70    1.50
  -6  -1  -8   30.50    1.40
   6  -1   8   26.30    2.40
   6  -1   8   28.80    1.50
   6   1   8   30.20    1.60
   6   1   8   35.20    2.80
   6   1   8   30.50    1.20
  -6   1  -8   29.90    1.50
  -6   1  -8   30.40    1.60
  -6   1  -8   29.60    2.40
  -6   1  -8   30.90    1.40
  -7  -1  -8   15.70    1.10
   7  -1   8   13.40    0.90
  -7  -1  -8   13.20    0.80
  -7   1  -8   15.20    0.90
  -7   1  -8   14.70    0.90
 -12  -2   8   34.30    1.80
 -12  -2   8   37.30    1.40
  12  -2  -8   37.80    1.60
 -12  -2   8   36.90    1.40
 -12   2   8   41.60    1.70
  12   2  -8   42.30    1.60
  12   2  -8   41.00    1.70
 -11  -2   8   14.00    0.70
 -11  -2   8   12.40    1.10
 -11  -2   8   13.60    0.80
  11  -2  -8   13.90    0.90
  11  -2  -8   10.90    1.30
  11  -2  -8   14.00    1.30
  11   2  -8   14.50    0.70
 -11   2   8   13.90    0.90
  11   2  -8   13.90    1.40
  11   2  -8   13.60    0.80
 -11   2   8   14.30    1.00
 -11   2   8   14.80    0.80
 -11   2   8   17.10    1.90
  11   2  -8   15.10    0.90
  11   2  -8   15.00    1.50
  10  -2  -8   14.10    1.00
 -10  -2   8   15.40    0.90
  10  -2  -8   16.10    1.60
 -10  -2   8   15.40    0.90
  10  -2  -8   12.40    1.50
 -10  -2   8   17.30    1.60
  10   2  -8   16.50    1.10
 -10   2   8   16.80    1.40
  10   2  -8   17.40    1.30
 -10   2   8   16.40    1.10
 -10   2   8   16.90    1.00
 -10   2   8   15.00    1.10
  10   2  -8   15.70    0.90
  10   2  -8   16.20    0.90
  10   2  -8   14.30    1.40
  10   2  -8   17.10    0.80
  -9  -2   8    0.20    0.10
   9  -2  -8    0.50    0.20
  -9  -2   8   -0.10    0.20
  -9  -2   8    0.00    0.10
   9   2  -8    7.10   15.40
   9   2  -8    1.40    0.80
  -8  -2   8   53.89    3.30
  -8  -2   8   66.59    2.70
   8  -2  -8   67.79    2.80
  -8  -2   8   69.29    2.60
  -8   2   8   71.39    2.60
   8   2  -8   73.29    2.90
   8   2  -8   73.19    3.10
  -8   2   8   72.49    2.90
  -8   2   8   70.69    2.70
   8   2  -8   71.19    3.00
   8   2  -8   69.99    2.70
   8   2  -8   68.19    3.40
   8   2  -8   72.89    2.90
  -8   2   8   86.59    4.20
  -7  -2   8    4.90    0.80
   7  -2  -8    3.30    0.70
  -7  -2   8    5.10    0.60
  -7  -2   8    5.50    0.60
  -7  -2   8    4.90    1.00
  -7   2   8    4.00    0.50
  -7   2   8    5.50    0.40
  -7   2   8    5.70    0.50
   7   2  -8    4.10    0.80
  -7   2   8    4.40    0.50
   7   2  -8    4.80    0.50
   7   2  -8    5.80    0.70
  -7   2   8    4.70    0.90
  -7   2   8    4.50    0.90
   7   2  -8    5.70    0.60
  -7   2   8    5.00    0.60
   7   2  -8    4.40    0.90
   7   2  -8    4.70    0.50
  -6  -2   8  123.39    5.00
  -6  -2   8  108.29    6.40
   6  -2  -8  122.49    7.40
  -6  -2   8  128.39    5.10
   6  -2  -8  124.79    5.30
  -6  -2   8  125.69    5.00
  -6  -2   8  122.09    5.00
   6  -2  -8  152.18    8.10
   6   2  -8  133.69    6.40
  -6   2   8  132.39    4.50
   6   2  -8  129.39    5.20
  -6   2   8  129.99    4.50
  -6   2   8  115.19    6.30
  -6   2   8  128.39    5.00
  -6   2   8  125.19    4.50
   6   2  -8  128.79    4.60
   6   2  -8  110.09    6.10
   6   2  -8  126.79    4.70
   6   2  -8  127.69    4.60
  -6   2   8  128.29    4.60
  -6   2   8  114.39    6.10
   5  -2  -8    0.50    2.70
   5  -2  -8    5.00    2.30
  -5  -2   8   10.20    3.10
  -5  -2   8    2.30    0.70
  -5   2   8    1.60    0.60
  -5   2   8    2.20    0.40
   5   2  -8    2.80    0.50
  -5   2   8    2.30    0.40
   5   2  -8    1.60    0.50
  -5   2   8    1.00    1.70
  -5   2   8    2.60    0.30
  -5   2   8    5.00    1.90
   5   2  -8    3.30    0.40
   5   2  -8   10.20    2.30
   5   2  -8    5.40    2.20
   5   2  -8    2.70    0.80
  -4  -2   8   83.09    5.00
  -4  -2   8   93.89    3.80
  -4  -2   8   94.29    3.90
   4  -2  -8   89.09    5.80
  -4  -2   8   92.29    5.30
  -4   2   8   93.19    3.40
   4   2  -8   91.09    4.40
  -4   2   8   94.09    4.50
  -4   2   8   94.89    4.20
   4   2  -8   93.29    3.60
  -4   2   8   96.59    3.90
   4   2  -8   95.09    5.10
  -4   2   8   96.79    3.50
   4   2  -8   93.59    3.50
  -4   2   8   93.59    3.40
   4   2  -8   93.79    4.10
   4   2  -8   92.19    4.80
   4   2  -8   95.29    3.50
   3  -2  -8  148.39    7.90
  -3  -2   8  157.28    5.90
  -3  -2   8  158.18    6.10
   3   2  -8  155.48    6.20
  -3   2   8  159.58    6.40
   3   2  -8  130.39    8.40
  -3   2   8  163.48    5.60
   3   2  -8  166.58    5.70
   3   2  -8  159.58    6.50
  -3   2   8  163.38    5.70
  -3   2   8  160.88    5.60
  -3   2   8  163.48    6.10
   3   2  -8  162.28    5.70
   3   2  -8  162.58    5.80
  -3   2   8  154.18    8.00
  -2  -2   8  103.79    4.60
  -2  -2   8  101.39    4.30
   2  -2  -8   90.99    5.90
  -2  -2   8  102.79    4.20
   2  -2  -8   99.09    4.30
   2   2  -8  105.59    3.90
   2   2  -8   87.89    6.80
  -2   2   8  104.39    3.70
   2   2  -8  100.69    4.70
  -2   2   8  101.09    3.70
   2   2  -8  100.09    3.80
   2   2  -8  103.89    4.40
  -2   2   8  107.09    4.20
  -2   2   8   98.79    4.80
   2   2  -8  105.69    4.70
   2   2  -8  100.29    3.70
   1  -2  -8  477.05   17.60
  -1  -2   8  450.75   15.90
   1  -2  -8  439.46   16.10
   1  -2  -8  449.76   15.90
   1  -2  -8  432.36   18.10
  -1  -2   8  435.46   15.50
  -1  -2   8  452.35   16.30
   1   2  -8  458.35   15.50
  -1   2   8  458.25   15.80
  -1   2   8  460.55   15.30
   1   2  -8  448.46   16.00
  -1   2   8  453.35   15.30
   1   2  -8  446.36   17.00
   1   2  -8  463.85   15.40
   1   2  -8  448.16   15.30
   1   2  -8  449.66   16.40
  -1   2   8  438.36   16.40
  -1   2   8  450.45   15.40
   1   2  -8  437.66   16.30
   0  -2  -8   26.40    2.80
   0  -2   8   23.50    1.40
   0  -2  -8   23.80    2.00
   0  -2  -8   23.50    1.60
   0  -2   8   22.20    1.70
   0  -2   8   24.30    2.00
   0   2  -8   23.50    2.00
   0   2  -8   24.80    1.80
   0   2  -8   17.30    2.70
   0   2   8   24.60    3.10
   0   2   8   25.60    1.60
   0   2   8   26.70    1.30
   0   2  -8   25.70    1.20
   0   2   8   25.40    1.20
   0   2   8   24.70    1.20
   0   2  -8   25.60    1.20
   0   2  -8   26.00    1.30
   0   2  -8   20.50    3.20
  -1  -2  -8   86.09    3.80
   1  -2   8   87.29    4.00
  -1  -2  -8   78.69    6.10
   1  -2   8   86.09    4.30
   1  -2   8   84.09    3.50
  -1  -2  -8   85.99    6.10
  -1   2  -8   88.19    4.10
   1   2   8   88.99    3.40
  -1   2  -8   81.69    5.00
  -1   2  -8   99.99    6.20
  -1   2  -8   86.29    3.50
   1   2   8   87.09    3.90
   1   2   8   92.59    3.40
   1   2   8   90.59    5.10
  -1   2  -8   72.39    5.30
  -1   2  -8   88.79    3.40
   1   2   8   92.49    3.30
  -1   2  -8   84.79    3.30
  -2  -2  -8    6.90    0.90
   2  -2   8    7.20    1.10
   2  -2   8    6.30    1.10
   2  -2   8    6.50    1.40
   2  -2   8    8.30    1.30
  -2  -2  -8    7.50    1.10
  -2  -2  -8    7.10    1.10
   2   2   8    7.50    0.70
   2   2   8    7.60    0.80
  -2   2  -8    7.30    1.30
   2   2   8    6.80    0.60
  -2   2  -8    7.50    0.60
  -2   2  -8    6.90    1.30
   2   2   8    7.70    0.60
  -2   2  -8    5.80    0.80
  -2   2  -8    6.50    0.60
  -3  -2  -8   12.70    1.30
   3  -2   8   11.40    1.00
  -3  -2  -8   11.60    0.90
   3  -2   8   13.40    1.40
   3  -2   8   12.00    1.00
  -3  -2  -8   12.80    0.90
  -3  -2  -8   12.00    1.10
  -3  -2  -8   13.40    1.30
  -3  -2  -8   10.30    1.00
   3   2   8   13.90    1.90
   3   2   8   14.30    0.80
  -3   2  -8   13.30    1.60
   3   2   8   14.30    0.90
  -3   2  -8   15.30    1.20
   3   2   8   15.30    0.90
  -3   2  -8   13.70    0.90
   3   2   8   13.40    1.00
  -3   2  -8   10.70    1.60
  -3   2  -8   -2.50   16.40
  -3   2  -8   13.80    0.70
   3   2   8   14.30    1.10
  -4  -2  -8  143.49    5.50
   4  -2   8  133.59    5.20
   4  -2   8  133.19    5.10
   4  -2   8  141.09    5.80
  -4  -2  -8  132.79    5.20
  -4  -2  -8  142.89    5.20
  -4  -2  -8  136.39    5.10
  -4  -2  -8  142.19    5.40
  -4  -2  -8  135.69    5.20
  -4  -2  -8  125.59    5.40
   4   2   8  145.89    5.40
   4   2   8  147.09    5.20
   4   2   8  152.78    5.60
  -4   2  -8  154.98    5.70
  -4   2  -8  145.29    6.40
  -4   2  -8  144.69    5.20
   4   2   8  150.38    5.40
   4   2   8  151.38    5.70
  -5  -2  -8   10.80    0.80
   5  -2   8   10.70    0.80
   5  -2   8    9.70    0.90
  -5  -2  -8   11.40    1.00
  -5  -2  -8   12.50    0.80
  -5  -2  -8    9.50    1.10
   5  -2   8    9.90    1.40
   5  -2   8   14.90    1.60
  -5  -2  -8   10.60    0.90
  -5   2  -8   12.30    0.90
   5   2   8   12.90    0.90
  -5   2  -8   12.90    1.00
   5   2   8   13.10    0.70
   5   2   8   12.50    0.90
   5   2   8   12.30    0.90
  -5   2  -8   10.40    0.90
   5   2   8   13.20    0.80
  -5   2  -8   13.10    1.50
  -6  -2  -8    6.50    0.60
  -6  -2  -8    6.80    0.60
   6  -2   8    7.10    0.70
  -6  -2  -8    5.60    0.60
   6  -2   8    6.60    1.40
  -6  -2  -8    5.70    0.70
  -6   2  -8    6.70    1.20
  -6   2  -8    7.70    0.80
  -6   2  -8    4.90    0.70
   6   2   8    6.10    1.20
  -6   2  -8    7.30    0.60
   6   2   8    6.40    0.70
   6   2   8    6.40    0.40
   7  -2   8    2.20    0.60
   7  -2   8    2.90    0.80
  -7  -2  -8    3.60    0.30
  -7  -2  -8    3.70    0.40
   7  -2   8    4.30    0.50
  -7  -2  -8    3.30    0.40
   7   2   8    4.20    0.30
   7   2   8    5.00    0.50
  -7   2  -8    3.50    0.60
 -11  -3   8   32.30    1.50
  11  -3  -8   31.80    2.20
  11  -3  -8   28.10    2.20
  11  -3  -8   32.90    1.40
  11  -3  -8   31.60    1.70
  11   3  -8   34.90    1.30
  11   3  -8   36.00    1.50
  11   3  -8   32.50    1.60
 -11   3   8   34.30    1.40
 -10  -3   8   20.10    0.90
  10  -3  -8   20.40    1.60
 -10  -3   8   19.10    1.30
  10  -3  -8   19.30    1.40
  10  -3  -8   19.60    2.00
 -10  -3   8   19.30    1.40
  10  -3  -8   20.50    1.10
 -10  -3   8   16.40    1.90
 -10  -3   8   19.80    0.90
  10   3  -8   22.70    1.10
  10   3  -8   23.70    1.40
 -10   3   8   21.90    0.90
  10   3  -8   23.30    1.20
  10   3  -8   22.50    1.30
 -10   3   8   22.80    1.10
  10   3  -8   17.50    1.80
  10   3  -8   22.00    1.00
  -9  -3   8   69.29    3.20
   9  -3  -8   68.59    3.50
  -9  -3   8   65.99    2.80
  -9  -3   8   78.89    5.20
   9  -3  -8   63.19    3.40
   9  -3  -8   67.99    2.80
  -9   3   8   73.79    2.90
   9   3  -8   69.69    3.30
   9   3  -8   77.89    2.90
   9   3  -8   75.29    3.40
   9   3  -8   73.49    2.80
  -9   3   8   72.19    2.80
  -9   3   8   75.49    2.60
   9   3  -8   75.39    2.70
  -9   3   8   73.59    3.30
   9   3  -8   74.89    3.00
  -8  -3   8   97.79    3.60
   8  -3  -8   91.39    4.50
   8  -3  -8   96.19    3.80
  -8  -3   8   94.19    3.90
  -8  -3   8   97.79    3.60
   8  -3  -8   95.69    5.50
  -8  -3   8  101.99    4.30
   8   3  -8  113.39    4.10
   8   3  -8  110.79    4.00
   8   3  -8  107.09    4.20
   8   3  -8  107.89    3.90
   8   3  -8  111.39    4.00
   8   3  -8  105.69    4.60
  -8   3   8  105.59    3.90
  -8   3   8  105.59    4.40
  -8   3   8  105.89    4.10
  -8   3   8  107.49    3.80
  -8   3   8  109.89    3.90
  -8   3   8  107.79    4.00
  -7  -3   8  580.34   20.10
  -7  -3   8  586.34   20.10
  -7  -3   8  602.64   20.70
   7  -3  -8  603.14   21.20
   7  -3  -8  583.64   20.30
  -7  -3   8  612.04   20.90
  -7  -3   8  586.04   20.60
   7   3  -8  657.23   22.60
  -7   3   8  640.74   21.80
  -7   3   8  641.84   21.70
  -7   3   8  658.93   21.80
   7   3  -8  666.13   21.90
  -7   3   8  646.94   21.60
  -7   3   8  639.44   22.30
   7   3  -8  672.73   21.90
   7   3  -8  617.44   21.70
   7   3  -8  629.54   22.10
   7   3  -8  656.83   22.00
  -7   3   8  633.24   22.00
  -6  -3   8  482.45   16.30
   6  -3  -8  460.45   16.00
  -6  -3   8  466.35   16.60
   6  -3  -8  463.75   16.70
  -6  -3   8  439.46   16.10
  -6  -3   8  463.35   15.90
  -6  -3   8  468.25   15.80
  -6   3   8  515.95   17.80
   6   3  -8  506.75   17.90
   6   3  -8  519.65   17.80
   6   3  -8  534.65   17.70
  -6   3   8  520.65   18.10
  -6   3   8  529.95   17.60
   6   3  -8  494.15   17.50
  -6   3   8  516.25   17.50
   6   3  -8  524.25   17.70
  -6   3   8  521.05   17.70
  -6   3   8  521.75   17.60
   6   3  -8  540.05   18.40
   5  -3  -8   37.10    2.30
  -5  -3   8   38.10    3.20
  -5  -3   8   34.80    2.00
  -5  -3   8   46.10    3.00
  -5   3   8   46.20    1.90
   5   3  -8   40.10    1.70
   5   3  -8   40.70    1.80
  -5   3   8   40.90    1.70
   5   3  -8   41.60    2.30
  -5   3   8   41.80    1.80
  -5   3   8   41.60    2.20
  -5   3   8   40.90    1.70
   5   3  -8   39.50    1.90
  -4  -3   8  121.89    4.60
   4  -3  -8  133.09    5.00
   4  -3  -8  118.59    4.60
   4  -3  -8  125.99    5.50
   4  -3  -8  118.79    5.30
  -4  -3   8  112.19    6.70
  -4  -3   8  125.39    5.20
  -4  -3   8  129.89    4.90
  -4   3   8  127.49    5.00
  -4   3   8  126.89    4.70
  -4   3   8  135.69    4.80
   4   3  -8  139.79    4.90
   4   3  -8  140.59    5.40
   4   3  -8  137.29    5.50
  -4   3   8  137.59    5.40
  -4   3   8  151.18    5.10
   4   3  -8  123.39    5.10
   4   3  -8  128.19    4.80
  -3  -3   8  318.97   12.70
   3  -3  -8  281.67   10.60
  -3  -3   8  282.97    9.90
  -3  -3   8  239.08    9.90
  -3  -3   8  262.87   10.00
   3  -3  -8  269.37    9.80
   3  -3  -8  280.87   12.10
  -3  -3   8  268.37   11.50
  -3  -3   8  275.37   10.00
   3   3  -8  309.97   10.60
  -3   3   8  309.07   10.30
  -3   3   8  301.37   11.90
  -3   3   8  305.47   10.90
  -3   3   8  310.07   10.50
  -3   3   8  288.07   10.30
   3   3  -8  299.87   10.50
   3   3  -8  300.37   10.40
   3   3  -8  295.57   11.10
  -2  -3   8   43.80    2.10
   2  -3  -8   47.10    2.90
  -2  -3   8   43.80    2.30
  -2  -3   8   41.40    2.10
   2  -3  -8   41.50    2.80
  -2  -3   8   43.40    2.00
  -2   3   8   47.40    1.90
  -2   3   8   46.80    1.90
  -2   3   8   53.29    3.70
   2   3  -8   46.00    2.00
   2   3  -8   47.40    2.10
   2   3  -8   46.50    2.60
  -2   3   8   48.90    2.00
   2   3  -8   46.90    2.10
  -2   3   8   48.10    2.40
   1  -3  -8  105.09    5.00
  -1  -3   8  104.19    6.40
  -1  -3   8  108.99    4.30
   1  -3  -8  102.59    4.10
   1  -3  -8  110.39    5.40
  -1  -3   8  109.39    4.50
   1  -3  -8  105.09    4.70
  -1  -3   8  109.39    4.10
  -1  -3   8  111.09    4.20
   1   3  -8  114.59    4.50
   1   3  -8  118.39    4.20
  -1   3   8  119.49    4.20
  -1   3   8  107.39    4.10
  -1   3   8  116.29    4.70
   1   3  -8  114.79    4.10
   1   3  -8  114.99    5.00
   0  -3   8   15.80    1.40
   0  -3   8   12.00    1.70
   0  -3  -8   16.50    1.90
   0  -3   8   17.00    1.50
   0  -3  -8   13.60    2.10
   0  -3   8   16.30    1.30
   0  -3   8   13.90    1.00
   0   3  -8   15.80    1.50
   0   3   8   17.30    0.90
   0   3  -8   13.20    1.00
   0   3  -8   16.50    1.00
   0   3   8   15.70    0.80
   0   3  -8   15.40    0.90
   0   3   8   12.80    1.40
   0   3   8   16.20    0.90
   0   3  -8   15.60    0.90
   0   3   8   16.20    0.90
   1  -3   8   16.20    1.10
   1  -3   8   15.60    1.10
  -1  -3  -8   15.90    1.50
  -1  -3  -8   13.80    1.00
  -1  -3  -8   15.90    1.40
   1  -3   8   17.30    1.40
  -1  -3  -8   15.00    1.00
   1  -3   8   15.10    1.20
  -1   3  -8   17.30    1.70
  -1   3  -8   19.40    1.00
   1   3   8   19.00    1.00
  -1   3  -8   19.50    0.90
  -1   3  -8   16.70    1.10
   1   3   8   17.20    1.20
  -1   3  -8   17.80    1.30
   1   3   8   19.80    1.10
   1   3   8   16.90    1.60
  -1   3  -8   18.40    1.10
   1   3   8   18.50    1.00
   1   3   8   18.80    0.90
  -2  -3  -8  252.27    9.80
   2  -3   8  260.87    9.20
  -2  -3  -8  254.57    9.10
   2  -3   8  255.47    9.20
   2  -3   8  252.67    9.10
   2  -3   8  262.17   10.00
  -2  -3  -8  249.38    9.00
  -2  -3  -8  257.67    9.50
  -2  -3  -8  258.47    9.40
   2   3   8  268.77    9.70
  -2   3  -8  274.97   10.50
  -2   3  -8  285.37    9.60
  -2   3  -8  279.77    9.70
   2   3   8  277.37    9.90
   2   3   8  283.97    9.70
  -2   3  -8  293.67   10.10
  -2   3  -8  273.47    9.80
   2   3   8  289.17    9.80
   2   3   8  273.77    9.50
  -2   3  -8  267.77    9.80
  -3  -3  -8   22.00    1.50
  -3  -3  -8   20.90    1.40
   3  -3   8   21.60    1.20
   3  -3   8   19.90    1.20
   3  -3   8   22.30    2.20
  -3  -3  -8   21.60    1.10
   3  -3   8   20.30    1.30
   3  -3   8   22.20    1.60
  -3  -3  -8   20.60    1.20
  -3  -3  -8   19.70    1.50
  -3   3  -8   24.10    1.50
  -3   3  -8   24.20    1.20
   3   3   8   24.00    1.40
   3   3   8   24.20    1.20
   3   3   8   24.10    1.20
   3   3   8   24.50    1.30
   3   3   8   23.50    1.10
  -3   3  -8   23.70    1.10
  -3   3  -8   23.70    1.30
  -3   3  -8   22.30    1.20
   4  -3   8  106.59    4.40
  -4  -3  -8   97.39    4.00
  -4  -3  -8   98.69    4.70
  -4  -3  -8  103.49    4.20
   4  -3   8  100.19    3.90
   4  -3   8  100.29    3.90
  -4   3  -8  109.69    3.90
  -4   3  -8  100.99    4.10
   4   3   8  120.99    4.30
   4   3   8  113.29    4.00
  -4   3  -8  112.59    4.40
  -4   3  -8  118.29    6.80
   4   3   8  114.39    4.20
   4   3   8  110.19    4.20
   4   3   8  105.59    4.40
  -5  -3  -8   53.29    2.00
  -5  -3  -8   52.29    1.90
  -5  -3  -8   52.29    2.20
  -5  -3  -8   52.09    2.30
  -5  -3  -8   49.20    2.10
   5  -3   8   44.00    3.20
   5  -3   8   46.50    3.30
   5  -3   8   54.99    2.90
   5  -3   8   50.39    2.20
   5   3   8   56.19    2.20
  -5   3  -8   57.49    2.40
   5   3   8   50.99    2.40
  -5   3  -8   55.59    2.00
   5   3   8   56.19    2.40
   5   3   8   59.39    2.40
   5   3   8   58.89    2.10
  -6  -3  -8   83.79    3.10
   6  -3   8   86.39    3.20
  -6  -3  -8   85.19    3.20
   6  -3   8   79.89    4.10
  -6  -3  -8   83.99    3.30
  -6   3  -8   95.69    3.60
   6   3   8   95.69    3.60
   6   3   8   96.39    3.40
  10  -4  -8   47.30    1.70
 -10  -4   8   43.90    1.90
  10  -4  -8   45.50    2.10
 -10  -4   8   42.50    1.80
  10   4  -8   50.79    2.00
  10   4  -8   50.29    1.80
  10   4  -8   48.60    2.10
 -10   4   8   50.39    1.80
 -10   4   8   51.39    2.00
  -9  -4   8   32.80    2.80
  -9  -4   8   35.10    2.10
   9  -4  -8   33.20    2.00
   9  -4  -8   36.10    2.00
   9  -4  -8   37.00    1.50
   9  -4  -8   37.60    2.50
  -9  -4   8   36.70    1.90
   9   4  -8   38.60    1.50
   9   4  -8   38.70    1.60
  -9   4   8   40.30    1.70
   9   4  -8   40.50    1.60
  -9   4   8   39.00    1.40
  -9   4   8   37.90    1.50
  -9   4   8   33.90    1.60
   9   4  -8   37.40    1.70
   9   4  -8   38.40    1.70
   9   4  -8   39.00    2.00
  -8  -4   8   27.00    2.00
   8  -4  -8   27.70    1.70
   8  -4  -8   27.70    1.80
   8  -4  -8   29.20    2.00
  -8  -4   8   27.60    1.40
   8  -4  -8   24.20    1.80
  -8  -4   8   27.80    1.70
   8  -4  -8   27.10    1.30
  -8   4   8   29.70    1.40
   8   4  -8   30.50    1.40
  -8   4   8   31.50    1.40
   8   4  -8   34.50    2.30
   8   4  -8   27.70    1.70
  -8   4   8   30.80    1.40
   8   4  -8   30.50    1.30
   8   4  -8   28.70    1.40
   8   4  -8   35.00    1.70
  -8   4   8   32.60    1.40
  -8   4   8   29.00    1.20
  -7  -4   8    8.30    1.40
   7  -4  -8    7.80    1.10
   7  -4  -8   10.40    0.70
  -7  -4   8    8.00    0.80
  -7  -4   8    8.80    1.00
   7  -4  -8    9.10    1.10
  -7  -4   8    9.80    1.20
   7   4  -8   10.30    1.20
   7   4  -8   10.00    0.70
  -7   4   8    9.80    0.60
   7   4  -8   10.80    0.70
   7   4  -8    9.90    0.60
  -7   4   8    9.30    0.50
  -7   4   8    9.00    1.10
  -7   4   8    9.50    0.70
  -7   4   8   10.30    0.70
   7   4  -8   11.00    0.80
  -7   4   8   10.60    0.70
  -6  -4   8    5.80    0.80
  -6  -4   8    4.90    1.10
   6  -4  -8    5.70    0.60
  -6  -4   8    9.10    1.60
   6  -4  -8    5.40    1.20
  -6  -4   8    5.20    1.30
  -6   4   8    7.30    0.60
  -6   4   8    6.80    1.00
   6   4  -8    8.70    0.70
   6   4  -8    7.40    0.60
  -6   4   8    6.80    0.50
   6   4  -8    7.50    0.70
  -6   4   8    8.40    0.70
   6   4  -8    5.90    0.70
   6   4  -8    9.40    1.20
  -6   4   8    7.50    0.50
   6   4  -8    7.70    0.60
  -6   4   8    7.80    0.50
   5  -4  -8  109.69    5.60
   5  -4  -8  111.59    5.30
  -5  -4   8   94.69    4.10
   5  -4  -8   98.49    3.90
  -5  -4   8   90.49    4.00
  -5   4   8  104.79    4.60
   5   4  -8  108.49    3.90
  -5   4   8  105.99    3.80
  -5   4   8  107.19    3.80
   5   4  -8  109.79    4.10
   5   4  -8  104.39    3.80
  -5   4   8  106.99    4.00
   5   4  -8  101.59    4.10
   5   4  -8  107.89    4.20
  -5   4   8   98.59    4.10
   5   4  -8  114.79    5.00
   4  -4  -8  114.89    5.00
  -4  -4   8  116.89    4.60
  -4  -4   8  122.09    5.00
   4  -4  -8  116.19    4.50
   4  -4  -8  121.79    5.30
  -4  -4   8  115.49    5.70
  -4  -4   8  118.09    4.70
  -4  -4   8  112.59    5.70
   4   4  -8  135.39    4.80
  -4   4   8  134.39    4.80
   4   4  -8  135.29    4.90
   4   4  -8  134.89    4.90
  -4   4   8  134.19    5.30
   4   4  -8  135.69    5.50
  -4   4   8  131.09    4.70
  -4   4   8  130.09    4.60
  -4   4   8  136.09    4.70
   4   4  -8  129.89    4.70
   4   4  -8  131.79    5.20
  -4   4   8  128.49    5.00
  -3  -4   8   45.10    2.10
   3  -4  -8   48.60    2.60
  -3  -4   8   46.50    3.10
   3  -4  -8   45.90    2.70
  -3  -4   8   44.10    2.00
   3  -4  -8   47.30    2.70
  -3  -4   8   45.80    3.20
  -3  -4   8   44.20    2.00
  -3  -4   8   46.60    2.50
  -3  -4   8   48.30    2.30
   3   4  -8   53.69    2.30
  -3   4   8   51.29    2.30
   3   4  -8   53.39    2.20
  -3   4   8   52.69    2.00
   3   4  -8   52.99    2.80
   3   4  -8   50.39    2.40
  -3   4   8   55.09    2.20
   3   4  -8   51.89    2.10
  -3   4   8   52.69    2.60
  -3   4   8   52.29    2.10
  -2  -4   8  118.69    5.60
  -2  -4   8  123.39    4.70
  -2  -4   8  117.29    4.50
  -2  -4   8  118.79    4.80
   2  -4  -8  122.49    5.20
   2  -4  -8  118.69    4.90
  -2  -4   8  122.29    4.60
  -2  -4   8  113.99    5.90
   2  -4  -8  118.09    4.90
  -2  -4   8  118.09    4.40
   2  -4  -8  115.89    5.30
  -2   4   8  114.09    5.00
   2   4  -8  130.59    5.50
  -2   4   8  140.19    5.40
   2   4  -8  128.79    5.10
  -2   4   8  135.89    4.70
  -2   4   8  136.49    4.80
  -2   4   8  134.29    5.00
   2   4  -8  138.79    5.00
   2   4  -8  134.79    4.80
  -2   4   8  136.29    4.90
   2   4  -8  140.19    4.90
  -1  -4   8  123.59    4.70
   1  -4  -8  124.49    5.30
  -1  -4   8  124.49    4.60
  -1  -4   8  128.19    4.90
  -1  -4   8  121.19    6.30
   1  -4  -8  121.59    5.00
  -1  -4   8  128.99    4.70
   1  -4  -8  121.99    5.50
  -1  -4   8  121.69    5.60
   1  -4  -8  121.59    5.00
   1   4  -8  136.19    5.30
   1   4  -8  130.19    5.60
  -1   4   8  138.49    5.10
  -1   4   8  143.09    5.00
  -1   4   8  143.69    5.00
   1   4  -8  136.69    4.90
   1   4  -8  143.39    5.00
   1   4  -8  141.59    5.10
  -1   4   8  138.29    5.50
  -1   4   8  139.09    4.90
   1   4  -8  143.19    5.20
  -1   4   8  135.59    5.40
   0  -4  -8  153.68    6.10
   0  -4  -8  159.98    6.90
   0  -4   8  127.29    5.40
   0  -4  -8  133.79    5.50
   0  -4  -8  152.08    6.60
   0  -4   8  126.39    5.30
   0  -4   8  119.09    6.00
   0  -4   8  139.29    5.30
   0  -4   8  138.09    7.80
   0  -4   8  118.59    5.50
   0   4   8  151.18    5.70
   0   4   8  153.08    5.60
   0   4  -8  152.68    6.10
   0   4   8  164.08    5.90
   0   4  -8  158.78    5.80
   0   4   8  147.29    7.00
   0   4  -8  158.18    5.80
   0   4   8  159.58    5.50
   0   4   8  150.68    5.40
   0   4  -8  156.18    5.60
   1  -4   8   29.00    1.50
  -1  -4  -8   28.40    1.80
  -1  -4  -8   29.60    1.70
   1  -4   8   29.30    1.40
   1  -4   8   27.70    2.00
   1  -4   8   26.90    2.60
   1  -4   8   27.40    2.70
  -1  -4  -8   29.20    1.70
  -1  -4  -8   28.60    2.00
  -1   4  -8   33.60    1.40
  -1   4  -8   33.70    1.70
   1   4   8   31.80    1.70
   1   4   8   34.50    1.60
  -1   4  -8   34.60    1.60
   1   4   8   33.60    1.50
   1   4   8   32.70    1.40
   1   4   8   34.60    1.50
  -1   4  -8   34.80    1.50
  -1   4  -8   32.60    1.80
  -2  -4  -8    9.50    1.10
  -2  -4  -8   11.10    1.00
  -2  -4  -8   11.50    1.10
   2  -4   8   10.40    1.70
   2  -4   8    9.70    0.70
   2  -4   8    9.70    0.80
   2  -4   8   10.00    1.60
   2  -4   8    9.70    0.90
  -2  -4  -8   11.40    1.30
   2   4   8   12.90    0.80
  -2   4  -8   12.00    0.90
  -2   4  -8   12.00    0.80
  -2   4  -8   12.30    0.70
   2   4   8   11.10    0.60
  -2   4  -8   10.80    0.90
  -2   4  -8   10.30    0.80
   2   4   8   11.70    0.70
   2   4   8   12.10    0.80
   3  -4   8    5.20    0.90
  -3  -4  -8    5.50    0.80
   3  -4   8    4.80    1.30
   3  -4   8    5.10    0.50
   3  -4   8    4.30    1.10
  -3  -4  -8    5.20    0.80
   3  -4   8    5.00    0.60
  -3  -4  -8    4.60    0.70
  -3   4  -8    5.60    0.80
   3   4   8    5.50    0.60
  -3   4  -8    5.70    0.60
  -3   4  -8    6.00    0.50
   3   4   8    7.10    0.90
  -3   4  -8    6.10    0.60
   3   4   8    6.30    0.50
  -3   4  -8    6.20    0.80
   3   4   8    5.20    0.70
   3   4   8    5.70    0.50
  -4  -4  -8    2.00    0.50
  -4  -4  -8    1.50    0.50
  -4  -4  -8    1.70    0.50
  -4  -4  -8    2.10    0.90
   4  -4   8    1.90    0.40
   4  -4   8    1.60    1.00
  -5  -4  -8    3.40    0.40
  -5  -4  -8    4.20    0.50
  -5  -4  -8    4.10    0.40
   5  -4   8    3.40    0.90
   5  -4   8    4.20    0.40
  -5   4  -8    4.20    0.50
   5   4   8    4.10    0.30
  -5   4  -8    3.90    0.30
   5   4   8    4.50    0.40
  -8  -5   8    6.20    0.70
  -8  -5   8    6.40    0.50
  -8  -5   8    4.80    0.90
   8  -5  -8    6.40    1.00
   8  -5  -8    7.20    0.70
  -8   5   8    5.80    0.50
   8   5  -8    7.00    0.40
  -8   5   8    6.90    0.40
  -8   5   8    7.10    0.40
   8   5  -8    6.90    0.50
   7  -5  -8   33.50    1.70
   7  -5  -8   32.30    1.80
  -7  -5   8   33.30    1.70
   7  -5  -8   28.90    1.80
  -7  -5   8   32.80    2.20
   7   5  -8   33.90    2.20
  -7   5   8   42.20    1.60
  -7   5   8   35.90    1.50
   7   5  -8   34.80    1.60
  -7   5   8   36.40    1.50
   7   5  -8   36.10    1.40
  -7   5   8   37.70    1.50
  -7   5   8   36.00    1.40
   7   5  -8   37.30    1.60
   7   5  -8   36.10    1.50
   6  -5  -8   14.30    1.20
   6  -5  -8   11.30    1.50
   6  -5  -8   13.80    1.20
  -6  -5   8   13.90    1.20
  -6  -5   8   13.90    0.90
  -6  -5   8   12.60    1.50
   6   5  -8   15.80    0.70
  -6   5   8   14.80    0.80
  -6   5   8   16.40    0.80
   6   5  -8   15.30    0.80
  -6   5   8   15.30    0.70
  -6   5   8   14.60    0.80
   6   5  -8   16.20    0.90
   6   5  -8   13.90    1.40
  -6   5   8   15.00    0.80
   6   5  -8   15.60    0.80
   5  -5  -8   46.20    2.50
   5  -5  -8   50.39    2.60
  -5  -5   8   48.40    2.10
   5  -5  -8   46.60    2.40
  -5  -5   8   44.80    2.40
  -5  -5   8   46.90    3.00
  -5  -5   8   48.50    2.40
   5   5  -8   54.79    2.50
  -5   5   8   55.39    2.70
   5   5  -8   53.69    2.10
  -5   5   8   55.99    2.00
   5   5  -8   57.19    2.20
  -5   5   8   53.49    2.20
  -5   5   8   54.39    2.10
   5   5  -8   55.19    2.20
  -5   5   8   58.39    2.20
   5   5  -8   51.49    2.70
  -4  -5   8   52.19    3.00
   4  -5  -8   53.59    3.10
  -4  -5   8   52.09    2.40
   4  -5  -8   49.70    2.50
   4  -5  -8   51.69    3.20
  -4  -5   8   46.90    3.20
   4   5  -8   57.49    2.20
   4   5  -8   60.99    2.30
  -4   5   8   58.39    2.10
  -4   5   8   58.59    2.20
   4   5  -8   55.09    2.80
  -4   5   8   59.49    2.30
  -4   5   8   55.09    2.30
  -4   5   8   58.89    2.20
  -4   5   8   66.09    3.10
   4   5  -8   58.89    2.40
   4   5  -8   58.89    2.50
  -3  -5   8   27.40    1.60
  -3  -5   8   28.50    2.20
   3  -5  -8   31.60    2.40
   3  -5  -8   29.20    1.90
   3  -5  -8   27.50    1.70
  -3  -5   8   34.80    2.50
  -3  -5   8   29.60    1.80
  -3  -5   8   30.80    3.30
   3  -5  -8   27.30    1.80
  -3   5   8   28.70    2.10
   3   5  -8   31.70    1.40
  -3   5   8   29.60    1.20
  -3   5   8   32.20    1.30
  -3   5   8   32.60    1.40
   3   5  -8   33.10    1.50
   3   5  -8   31.80    1.30
  -3   5   8   31.80    1.30
   3   5  -8   30.90    1.40
   2  -5  -8   96.09    4.40
   2  -5  -8   84.79    3.80
  -2  -5   8   83.29    4.10
  -2  -5   8   86.89    3.50
   2  -5  -8   82.99    4.30
  -2  -5   8   81.09    3.50
   2  -5  -8   77.19    3.50
  -2  -5   8   82.59    4.50
  -2  -5   8   86.19    3.70
  -2   5   8   95.39    3.40
  -2   5   8   96.09    3.50
  -2   5   8   89.29    4.10
   2   5  -8   89.99    3.60
   2   5  -8   98.59    3.60
  -2   5   8   97.89    3.40
   2   5  -8   94.29    3.60
   2   5  -8   91.29    3.50
  -2   5   8   94.59    3.30
   2   5  -8   90.19    3.50
   1  -5  -8   23.40    1.70
  -1  -5   8   22.20    1.60
   1  -5  -8   24.50    1.40
  -1  -5   8   23.70    1.40
   1  -5  -8   26.40    2.40
   1  -5  -8   22.70    1.40
  -1  -5   8   26.40    2.60
  -1   5   8   26.80    1.20
  -1   5   8   26.70    1.20
  -1   5   8   25.50    1.10
   1   5  -8   27.40    1.30
   1   5  -8   27.70    1.20
   1   5  -8   27.00    1.30
   1   5  -8   26.40    1.20
   1   5  -8   24.90    1.30
   0  -5  -8   19.00    1.70
   0  -5  -8   20.70    1.20
   0  -5   8   22.60    2.30
   0  -5  -8   20.80    1.40
   0  -5   8   19.90    2.00
   0  -5   8   20.30    1.30
   0  -5   8   19.90    1.50
   0  -5  -8   21.30    1.30
   0  -5  -8   21.80    1.30
   0   5   8   25.10    1.10
   0   5  -8   23.10    1.00
   0   5   8   23.50    1.00
   0   5   8   24.50    1.10
   0   5   8   23.20    1.40
   0   5  -8   24.00    1.70
   0   5  -8   22.90    1.10
   0   5  -8   21.00    1.20
  -1  -5  -8  291.87   10.30
  -1  -5  -8  275.37   10.30
  -1  -5  -8  290.27   10.60
   1  -5   8  283.47   11.40
   1  -5   8  282.27   10.40
   1  -5   8  284.77   11.30
  -1  -5  -8  305.77   10.20
   1  -5   8  291.97   10.20
  -1  -5  -8  291.37   10.20
  -1   5  -8  313.97   11.00
  -1   5  -8  318.77   11.10
  -1   5  -8  323.37   11.10
   1   5   8  322.47   11.10
  -1   5  -8  317.97   11.20
   1   5   8  321.47   11.00
   1   5   8  325.07   11.00
  -1   5  -8  330.87   10.90
   1   5   8  321.97   10.90
   2  -5   8   22.60    1.30
  -2  -5  -8   23.90    1.30
  -2  -5  -8   22.50    1.30
  -2  -5  -8   22.00    1.20
   2  -5   8   20.70    1.90
   2  -5   8   22.40    1.90
  -2  -5  -8   23.60    1.50
   2   5   8   24.30    1.20
   2   5   8   25.00    1.20
  -2   5  -8   23.80    1.20
  -2   5  -8   26.40    1.10
  -2   5  -8   27.90    1.30
   2   5   8   25.40    1.10
   2   5   8   25.30    1.10
  -2   5  -8   28.70    1.60
  -2   5  -8   25.90    1.20
  -3  -5  -8    0.30    0.10
   3  -5   8   -1.20    1.80
   3   5   8    0.10    0.50
  -3   5  -8    0.80    0.50
  -3   5  -8    0.20    0.20
  -4  -5  -8   13.00    0.80
   5  -6  -8   37.00    1.70
   5  -6  -8   39.50    1.80
  -5  -6   8   37.50    2.00
  -5  -6   8   38.00    1.70
  -5  -6   8   37.70    1.50
   5  -6  -8   31.40    1.80
  -5   6   8   39.00    1.50
   5   6  -8   39.50    1.60
   5   6  -8   39.70    1.50
  -5   6   8   39.80    1.50
  -4  -6   8   17.00    1.00
   4  -6  -8   17.60    1.10
  -4  -6   8   14.20    1.20
  -4  -6   8   15.40    1.20
   4  -6  -8   16.80    1.00
  -4  -6   8   16.30    0.80
   4   6  -8   16.80    0.80
  -4   6   8   16.10    0.80
   4   6  -8   17.50    0.70
   3  -6  -8   75.29    3.30
  -3  -6   8   74.89    3.40
   3  -6  -8   73.49    3.00
  -3  -6   8   73.49    3.30
  -3  -6   8   73.79    2.90
   3  -6  -8   77.59    3.20
  -3  -6   8   72.69    2.80
   3  -6  -8   80.39    3.00
   3   6  -8   73.89    3.00
  -3   6   8   76.59    2.80
  -3   6   8   81.09    3.00
  -2  -6   8   44.10    1.80
  -2  -6   8   40.50    2.00
  -2  -6   8   44.20    2.30
   2  -6  -8   44.50    2.10
  -2  -6   8   42.70    1.90
   2  -6  -8   45.60    2.00
  -2  -6   8   44.40    2.40
   2  -6  -8   43.80    1.90
  -2   6   8   45.10    1.70
   2   6  -8   47.30    1.70
  -2   6   8   45.40    1.70
   2   6  -8   47.50    2.00
   1  -6  -8   60.89    2.50
   1  -6  -8   65.09    2.70
   1  -6  -8   64.99    2.70
  -1  -6   8   63.49    2.80
  -1  -6   8   61.69    3.10
  -1   6   8   65.99    2.60
   1   6  -8   69.29    2.40
   0  -6   8   14.00    1.30
   0  -6  -8   16.00    1.10
   0  -6  -8   15.40    1.00
   0  -6  -8   15.70    0.90
   0  -6   8   14.80    1.20
   0  -6  -8   13.50    0.80
   0  -6   8   13.80    1.20
   0   6  -8   16.30    0.80
   0   6   8   14.30    0.70
   0   6  -8   16.70    0.70
  -1  -6  -8   34.60    1.50
  -1  -6  -8   36.10    1.70
   1  -6   8   38.00    2.20
   1  -6   8   31.90    2.00
  -1  -6  -8   37.70    1.60
  -1   6  -8   34.60    1.40
  -1   6  -8   36.90    1.30
 -12   0   9   10.50    0.60
 -12   0   9   11.60    0.70
  12   0  -9   11.10    0.70
 -12   0   9   11.20    0.80
 -11   0   9    3.30    0.80
 -11   0   9    2.90    0.50
 -11   0   9    2.70    0.40
  11   0  -9    3.80    0.50
  10   0  -9   89.59    3.50
  10   0  -9  104.69    4.30
 -10   0   9   87.69    3.50
 -10   0   9   90.89    4.30
 -10   0   9   86.49    3.60
  -9   0   9   15.10    1.00
  -9   0   9   15.70    1.30
  -9   0   9   15.60    1.00
   9   0  -9   14.50    1.20
   9   0  -9   15.80    1.00
  -8   0   9   56.69    2.80
   8   0  -9   53.79    2.60
  -8   0   9   57.69    2.40
  -8   0   9   54.39    2.40
   8   0  -9   56.29    2.40
  -8   0   9   55.49    2.50
   7   0  -9   11.20    1.60
  -7   0   9   10.50    1.10
   7   0  -9   11.30    1.30
   6   0  -9  312.77   11.20
  -6   0   9  301.87   11.30
  -6   0   9  304.77   13.90
  -5   0   9  153.48    8.60
   5   0  -9  148.59    5.90
  -5   0   9  151.98    6.30
  -5   0   9  142.99    5.70
  -4   0   9  174.98    6.90
  -4   0   9  180.78    7.80
  -4   0   9  179.28    7.00
   4   0  -9  187.48    7.00
   4   0  -9  179.48    7.90
  -4   0   9  179.08    6.80
  -3   0   9  450.15   17.00
   3   0  -9  448.76   17.10
   3   0  -9  468.55   16.20
  -3   0   9  469.35   16.30
  -3   0   9  472.35   16.10
  -3   0   9  427.66   15.90
  -2   0   9   72.39    4.50
   2   0  -9   75.39    3.50
  -2   0   9   73.19    3.50
  -2   0   9   75.39    3.40
   2   0  -9   79.19    3.70
  -1   0   9   64.79    3.20
  -1   0   9   64.49    4.40
   1   0  -9   65.39    3.30
   1   0  -9   64.39    3.60
  -1   0   9   67.09    3.20
   1   0  -9   64.69    3.30
   0   0  -9  449.95   16.00
   0   0   9  450.35   15.90
   0   0  -9  425.66   17.00
   0   0  -9  433.76   16.10
   1   0   9   33.40    2.30
  -1   0  -9   32.10    1.80
  -1   0  -9   33.80    2.30
  -1   0  -9   34.00    1.90
   1   0   9   33.80    1.80
  -1   0  -9   32.40    1.80
  -1   0  -9   43.30    3.20
   1   0   9   36.20    1.40
   1   0   9   36.60    2.30
  -1   0  -9   25.20    7.20
   2   0   9  220.48    8.50
  -2   0  -9  213.88    7.80
   2   0   9  203.78    7.80
  -2   0  -9  204.18    7.90
   2   0   9  223.28    7.80
   2   0   9  208.48    7.30
  -2   0  -9  217.88    8.60
  -2   0  -9  216.48    8.60
   2   0   9  213.68    8.50
   2   0   9  204.88    7.90
  -2   0  -9  222.48    7.80
   3   0   9  116.09    4.90
  -3   0  -9   98.69    4.60
   3   0   9  117.09    5.00
   3   0   9   96.59    4.00
   3   0   9  100.19    4.70
   3   0   9   92.89    3.60
  -3   0  -9   95.49    4.10
   3   0   9   97.09    4.70
  -3   0  -9   94.29    4.00
  -4   0  -9  272.57   10.10
  -4   0  -9  265.57    9.40
   4   0   9  258.07   10.10
  -4   0  -9  264.57    9.50
   4   0   9  265.87    9.40
   4   0   9  255.47    9.30
   4   0   9  254.07    9.40
  -5   0  -9    5.90    1.10
  -5   0  -9    6.40    0.70
  -5   0  -9    5.60    0.60
   5   0   9    5.30    0.70
   5   0   9    6.50    0.70
   5   0   9    5.20    1.50
   5   0   9    5.60    0.70
  -6   0  -9   92.19    3.50
   6   0   9   94.49    3.60
  -6   0  -9   87.69    3.50
  -6   0  -9   92.49    3.60
  -7   0  -9   10.20    0.80
  -7   0  -9    9.70    0.70
   7   0   9    8.90    0.80
  -7   0  -9    9.60    0.70
  12  -1  -9    1.60    0.40
 -12  -1   9    1.40    0.30
 -12  -1   9    1.40    0.30
 -12   1   9    2.00    0.50
  12   1  -9    1.10    0.40
 -12   1   9    1.40    0.40
 -11  -1   9   90.79    3.50
  11  -1  -9   89.89    3.50
  11  -1  -9   92.89    4.10
 -11  -1   9   93.39    3.70
 -11  -1   9   91.49    3.40
 -11  -1   9   93.59    3.80
 -11   1   9   89.19    3.60
 -11   1   9   89.19    3.60
 -11   1   9  109.89    3.90
  11   1  -9   95.69    3.60
 -10  -1   9    1.50    0.40
 -10  -1   9    0.50    0.20
  10  -1  -9    0.10    0.20
 -10  -1   9    0.70    0.20
 -10   1   9    0.80    0.30
 -10   1   9    0.60    0.30
 -10   1   9    2.10    0.50
   9  -1  -9   49.00    2.30
  -9  -1   9   53.59    2.60
  -9  -1   9   50.89    2.20
   9  -1  -9   50.59    2.20
  -9  -1   9   50.79    2.20
  -9   1   9   50.49    2.30
  -9   1   9   50.69    2.30
  -9   1   9   53.79    2.20
   9   1  -9   51.99    2.00
   9   1  -9   53.89    2.70
   9   1  -9   53.99    2.40
  -8  -1   9  200.88    7.10
   8  -1  -9  196.08    7.10
  -8  -1   9  199.28    7.10
   8  -1  -9  192.88    7.20
   8   1  -9  210.78    7.30
  -8   1   9  201.38    7.50
   8   1  -9  208.98    7.50
   8   1  -9  210.18    7.20
  -8   1   9  204.68    7.40
   8   1  -9  214.08    7.90
  -8   1   9  204.08    7.50
  -7  -1   9   10.30    1.10
   7  -1  -9    8.40    0.80
  -7  -1   9    7.80    0.70
  -7  -1   9    8.00    0.80
   7  -1  -9    7.70    0.90
  -7   1   9    8.80    0.50
   7   1  -9    9.00    0.60
  -7   1   9   10.30    0.80
  -7   1   9    9.50    1.10
   7   1  -9    7.40    1.10
  -7   1   9    6.00    1.10
   7   1  -9    9.40    0.80
   7   1  -9    8.90    0.70
  -7   1   9    7.80    1.10
   7   1  -9   14.50   13.50
  -6  -1   9   24.50    1.40
  -6  -1   9   25.10    1.70
  -6  -1   9   22.70    1.30
  -6  -1   9   26.70    1.70
   6  -1  -9   23.80    1.40
   6   1  -9   24.70    1.40
   6   1  -9   24.60    1.30
  -6   1   9   -8.80   12.50
   6   1  -9   25.70    1.30
   6   1  -9   25.70    1.10
  -6   1   9   25.10    1.70
  -6   1   9   25.70    1.00
  -6   1   9   25.60    1.40
   6   1  -9   26.10    1.90
  -6   1   9   24.50    1.60
   5   1  -9   27.10    1.50
  -5   1   9   27.30    2.80
  -5   1   9   30.80    1.30
   5   1  -9   29.40    1.40
  -5   1   9   36.00    2.40
  -5   1   9   33.20    1.80
   5   1  -9   29.00    3.50
  -5   1   9    2.40   10.80
   5   1  -9   29.60    1.90
  -4  -1   9    9.00    4.00
  -4  -1   9    5.90    0.90
  -4  -1   9    5.80    1.20
   4  -1  -9    8.60    3.70
  -4  -1   9    7.50    1.00
   4   1  -9   11.00    2.00
  -4   1   9    8.80    1.00
  -4   1   9    9.50    3.30
   4   1  -9    6.00    2.30
   4   1  -9    7.20    0.70
  -4   1   9    8.20    0.60
  -4   1   9    8.50    1.00
   4   1  -9    8.90    1.10
  -3  -1   9   43.10    2.20
  -3  -1   9   40.00    3.60
  -3  -1   9   47.90    2.60
   3  -1  -9   43.40    2.50
  -3  -1   9   47.40    2.40
  -3   1   9   38.40    1.70
  -3   1   9   44.60    2.40
   3   1  -9   43.30    2.80
  -3   1   9   44.80    2.30
   3   1  -9   44.00    2.40
  -3   1   9   43.90    1.80
  -3   1   9   43.50    1.90
   3   1  -9   46.00    1.90
  -3   1   9   43.80    3.20
  -2  -1   9   92.29    5.70
   2  -1  -9   91.09    4.10
   2  -1  -9   87.09    4.00
  -2  -1   9   89.99    3.90
   2  -1  -9   72.79    5.50
  -2  -1   9   87.09    3.60
  -2  -1   9   87.99    4.00
  -2   1   9   88.39    3.40
  -2   1   9   86.49    3.30
  -2   1   9   86.39    3.20
   2   1  -9   89.39    4.20
  -2   1   9   83.49    4.70
   2   1  -9   88.19    3.30
  -2   1   9   86.79    4.00
   2   1  -9   91.79    4.20
  -2   1   9   88.19    3.80
   2   1  -9   88.79    4.00
  -1  -1   9   74.79    3.20
  -1  -1   9   76.89    3.80
   1  -1  -9   84.99    7.10
   1  -1  -9   79.09    3.80
  -1   1   9   78.69    4.80
  -1   1   9   79.09    3.00
  -1   1   9   79.79    3.80
  -1   1   9   80.89    3.60
   1   1  -9   80.59    3.90
   1   1  -9   79.09    3.70
  -1   1   9   76.09    3.00
   1   1  -9   78.29    3.00
  -1   1   9   77.49    3.10
   0  -1   9  208.88    8.20
   0  -1   9  205.88    8.00
   0  -1  -9  209.28    8.20
   0  -1  -9  189.98    9.90
   0  -1  -9  208.38    8.10
   0   1   9  205.78    7.20
   0   1  -9  212.28    8.10
   0   1   9  212.48    7.90
   0   1   9  203.68    7.30
   0   1   9  203.38    7.20
   0   1  -9  191.18    8.60
   0   1  -9  204.48    8.30
   1  -1   9  181.88    7.30
  -1  -1  -9  191.18    7.80
   1  -1   9  212.28    7.90
   1  -1   9  190.28    7.80
  -1  -1  -9  193.28    8.00
   1  -1   9  206.48    8.80
   1  -1   9  206.48    8.00
  -1   1  -9  189.78    7.70
  -1   1  -9  198.18    7.90
  -1   1  -9  176.58    7.00
   1   1   9  190.78    6.70
  -1   1  -9  192.48    6.50
  -1   1  -9  172.48    7.10
   1   1   9  194.88    7.70
   1   1   9  193.28    6.70
   2  -1   9  147.69    5.70
   2  -1   9  146.79    6.20
   2  -1   9  150.48    6.40
  -2  -1  -9  146.39    5.70
   2  -1   9  148.89    5.60
  -2  -1  -9  147.99    6.20
  -2  -1  -9  147.59    5.60
   2  -1   9  143.59    5.60
   2   1   9  151.88    6.40
  -2   1  -9  149.19    6.40
   2   1   9  153.58    6.30
  -2   1  -9  156.58    5.70
  -2   1  -9  142.39    5.70
   2   1   9  152.68    5.20
  -2   1  -9  151.18    6.50
   2   1   9  127.09    5.40
   2   1   9  154.58    5.40
   2   1   9  156.08    5.70
  -2   1  -9  141.39    5.80
   3  -1   9   42.70    2.70
  -3  -1  -9   38.40    2.50
   3  -1   9   45.00    2.60
   3  -1   9   42.90    2.60
  -3  -1  -9   41.70    2.50
  -3   1  -9   43.90    2.80
   3   1   9   37.70    3.40
  -3   1  -9   49.99    3.00
   3   1   9   47.60    2.30
   3   1   9   41.50    2.80
  -3   1  -9   48.70    2.60
  -4  -1  -9   20.60    1.60
   4  -1   9   21.70    1.30
  -4  -1  -9   22.30    1.20
   4  -1   9   20.00    1.20
   4  -1   9   20.50    1.70
  -4  -1  -9   22.70    1.30
   4  -1   9   20.30    1.30
  -4  -1  -9   19.50    1.20
   4   1   9   22.10    1.10
   4   1   9   21.70    1.30
  -4   1  -9   21.00    1.40
  -4   1  -9   19.30    1.70
   4   1   9   27.40    2.70
  -4   1  -9   22.60    1.30
  -4   1  -9   22.70    1.30
   4   1   9   22.40    1.00
   4   1   9  -35.60   21.30
   5  -1   9    2.40    0.40
  -5  -1  -9    2.00    0.50
  -5  -1  -9    1.50    0.50
  -5  -1  -9    2.50    0.50
  -5  -1  -9    3.10    0.80
   5   1   9   -1.60    1.60
  -5   1  -9    2.40    0.50
   5   1   9    1.60    0.20
  -5   1  -9    3.10    1.20
   5   1   9    2.50    0.50
   6  -1   9   16.10    1.00
  -6  -1  -9   14.70    0.90
  -6  -1  -9   18.00    1.20
  -6  -1  -9   18.40    1.10
  -6  -1  -9   15.60    1.00
  -6   1  -9   15.60    0.90
  -6   1  -9   17.10    1.00
  -6   1  -9   16.40    0.90
  12  -2  -9   38.60    1.90
 -11  -2   9   53.19    2.30
  11  -2  -9   50.49    2.50
  11  -2  -9   48.70    2.60
 -11   2   9   57.99    2.80
  11   2  -9   57.69    2.10
 -11   2   9   59.59    2.60
  11   2  -9   59.69    2.40
  11   2  -9   55.19    2.30
 -11   2   9   57.19    2.30
 -10  -2   9   18.70    1.00
 -10  -2   9   19.10    1.00
  10  -2  -9   18.50    1.10
  10  -2  -9   24.30    2.60
 -10  -2   9   18.10    1.30
 -10   2   9   19.30    1.00
  10   2  -9   20.30    1.20
 -10   2   9   19.00    1.50
  10   2  -9   19.10    1.50
  10   2  -9   20.20    1.00
  10   2  -9   20.50    0.90
  10   2  -9   20.10    1.20
  10   2  -9   21.30    1.60
  -9  -2   9   12.10    0.80
   9  -2  -9   11.30    0.90
  -9  -2   9   10.20    1.60
  -9  -2   9   11.90    0.80
   9  -2  -9   12.90    1.40
  -9  -2   9   11.40    1.20
   9   2  -9   12.10    0.70
   9   2  -9   11.00    1.00
   9   2  -9   13.20    1.00
  -9   2   9   12.70    0.60
   9   2  -9   12.50    0.90
   9   2  -9   13.70    1.30
   9   2  -9   13.20    0.80
  -8  -2   9  151.68    5.80
  -8  -2   9  156.48    5.70
   8  -2  -9  153.98    5.80
  -8  -2   9  160.88    6.00
   8   2  -9  180.28    6.40
   8   2  -9  168.58    5.90
   8   2  -9  162.28    6.10
  -8   2   9  171.18    6.70
   8   2  -9  161.98    5.90
  -8   2   9  141.29    6.60
  -8   2   9  167.28    5.70
  -8   2   9  166.68    6.00
   8   2  -9  166.38    5.80
  -7  -2   9   78.39    3.60
   7  -2  -9   75.19    3.20
  -7  -2   9   74.09    3.00
  -7  -2   9   74.29    3.10
  -7  -2   9   79.79    3.50
   7   2  -9   80.79    3.30
   7   2  -9   81.09    3.70
   7   2  -9   81.29    3.10
   7   2  -9   80.59    3.10
   7   2  -9   77.99    3.00
  -7   2   9   80.09    3.20
  -7   2   9   80.09    3.00
   7   2  -9   82.09    3.20
  -7   2   9   82.19    3.50
  -7   2   9   73.59    3.70
  -7   2   9   79.69    2.90
  -6  -2   9   83.49    3.60
   6  -2  -9   78.49    3.30
  -6  -2   9   78.89    3.20
  -6  -2   9   82.69    3.60
  -6  -2   9   78.49    3.20
  -6   2   9   86.09    3.00
  -6   2   9   84.69    4.00
  -6   2   9   84.89    3.10
  -6   2   9   81.79    3.30
   6   2  -9   85.69    3.80
   6   2  -9   84.29    3.20
  -6   2   9   82.49    3.20
   6   2  -9   84.69    3.20
  -6   2   9   83.79    3.10
   6   2  -9   81.69    3.10
  -6   2   9   85.49    3.60
   6   2  -9   84.59    3.30
   6   2  -9   82.09    3.40
   5  -2  -9    3.40    0.80
  -5  -2   9    3.70    0.70
  -5  -2   9    2.50    0.70
  -5  -2   9    3.20    0.60
  -5   2   9    2.50    0.40
   5   2  -9    2.20    0.40
   5   2  -9    3.10    0.60
  -5   2   9    3.10    0.60
  -5   2   9    2.40    0.30
   5   2  -9    2.60    0.80
   5   2  -9    3.20    0.50
  -5   2   9    3.00    0.40
   5   2  -9    2.20    0.40
  -5   2   9    2.00    0.60
   4  -2  -9  231.38    8.80
  -4  -2   9  251.37    9.10
  -4  -2   9  241.08    8.70
  -4  -2   9  256.97    9.00
  -4   2   9  261.77    9.50
  -4   2   9  257.87    9.00
   4   2  -9  263.37    9.20
   4   2  -9  253.57    8.90
   4   2  -9  300.47   13.00
   4   2  -9  260.37    9.20
   4   2  -9  261.87    9.00
  -4   2   9  257.77    8.80
   4   2  -9  247.98    9.30
  -4   2   9  268.07    9.00
   4   2  -9  251.07    9.80
  -4   2   9  247.98    9.20
  -3  -2   9   32.00    2.00
  -3  -2   9   34.30    1.80
   3  -2  -9   34.00    2.00
  -3   2   9   31.10    2.20
   3   2  -9   35.60    2.10
   3   2  -9   34.30    1.60
  -3   2   9   35.20    1.60
   3   2  -9   38.60    1.80
  -3   2   9   35.40    1.50
   3   2  -9   39.80    3.40
   3   2  -9   31.30    3.50
   3   2  -9   31.50    2.30
  -3   2   9   31.90    3.10
   3   2  -9   34.50    1.60
  -3   2   9   34.50    1.50
   3   2  -9   34.60    1.50
  -3   2   9   35.40    2.00
   2  -2  -9   81.09    3.80
  -2  -2   9   90.79    3.70
   2  -2  -9   95.49    4.10
  -2  -2   9   94.49    4.50
  -2  -2   9   87.69    3.70
  -2  -2   9   87.49    3.80
  -2  -2   9   93.69    4.10
  -2   2   9   96.99    4.10
  -2   2   9   94.99    4.70
  -2   2   9   96.49    3.60
   2   2  -9   95.39    3.60
   2   2  -9   93.59    3.50
   2   2  -9  107.59    4.60
  -2   2   9   91.39    5.10
  -2   2   9   97.99    3.50
   2   2  -9   84.29    5.30
   2   2  -9   93.89    3.70
  -2   2   9  101.49    3.60
   2   2  -9   95.49    3.60
   2   2  -9   94.09    4.30
   1  -2  -9    2.20    0.60
   1  -2  -9    2.00    0.70
  -1  -2   9    2.00    0.60
  -1  -2   9    1.00    0.60
   1  -2  -9    3.60    1.20
  -1  -2   9    3.40    0.80
  -1  -2   9    2.20    0.60
  -1   2   9    4.40    0.40
  -1   2   9    5.00    0.90
   1   2  -9    3.10    0.60
  -1   2   9    2.60    0.60
   1   2  -9    3.20    0.40
   1   2  -9    3.30    1.20
   1   2  -9    2.70    0.60
   1   2  -9    3.40    0.50
   0  -2   9  279.97   10.80
   0  -2   9  279.17   10.40
   0  -2   9  268.17   10.00
   0  -2  -9  265.47   10.10
   0  -2  -9  273.47   10.30
   0  -2   9  270.67   10.00
   0  -2  -9  280.17   10.70
   0  -2  -9  285.57   10.10
   0  -2   9  277.27   10.30
   0   2  -9  284.87   10.50
   0   2  -9  281.67    9.90
   0   2   9  273.67    9.80
   0   2  -9  273.57    9.90
   0   2  -9  279.47   11.00
   0   2  -9  282.37   10.70
   0   2  -9  283.17    9.70
   0   2   9  290.87    9.80
   0   2   9  297.87   10.70
   0   2   9  282.17    9.80
   0   2  -9  278.07    9.80
   0   2   9  283.17    9.90
  -1  -2  -9    3.10    0.60
  -1  -2  -9    3.40    0.60
   1  -2   9    3.10    0.70
   1  -2   9    4.30    0.90
   1  -2   9    2.90    0.60
   1  -2   9    5.60    1.20
  -1  -2  -9    3.40    0.90
  -1  -2  -9    4.40    0.90
  -1   2  -9    2.30    0.40
   1   2   9    2.80    0.50
   1   2   9    3.40    0.60
  -1   2  -9    1.60    0.50
  -1   2  -9    3.40    0.70
   1   2   9    4.20    1.20
  -1   2  -9  -12.40   12.40
  -2  -2  -9  796.12   27.00
  -2  -2  -9  802.42   27.20
  -2  -2  -9  827.72   27.50
   2  -2   9  782.52   27.10
   2  -2   9  837.82   27.80
   2  -2   9  789.92   27.20
  -2  -2  -9  740.33   27.80
  -2   2  -9  849.52   30.30
   2   2   9  850.11   29.90
   2   2   9  872.21   29.20
  -2   2  -9  887.51   29.50
   2   2   9  879.51   29.10
   2   2   9  849.02   29.10
   2   2   9  865.31   28.90
  -2   2  -9  858.11   28.90
  -2   2  -9  849.12   30.00
   2   2   9  875.31   29.40
   3  -2   9    3.10    0.60
   3  -2   9    2.60    0.90
  -3  -2  -9    2.40    0.90
  -3  -2  -9    3.30    0.50
  -3  -2  -9    2.80    0.50
  -3  -2  -9    2.50    0.70
   3  -2   9    3.40    0.60
  -3  -2  -9    2.20    0.80
  -3  -2  -9    3.10    0.70
   3   2   9    3.20    0.50
   3   2   9    3.40    0.40
  -3   2  -9    2.90    1.10
  -3   2  -9    3.50    1.20
   3   2   9    3.50    0.60
  -3   2  -9    3.70    0.60
  -3   2  -9    2.90    0.30
   3   2   9    3.50    0.60
  -4  -2  -9   39.70    2.00
  -4  -2  -9   39.90    2.00
  -4  -2  -9   40.50    1.80
  -4  -2  -9   35.70    2.10
  -4  -2  -9   41.30    1.90
   4  -2   9   41.10    2.30
   4  -2   9   49.70    2.40
   4   2   9   43.70    1.70
   4   2   9   42.20    1.80
  -4   2  -9   42.50    2.60
  -4   2  -9   40.90    2.00
   4   2   9   42.90    2.10
   4   2   9   42.60    1.80
   4   2   9   39.20    2.50
  -4   2  -9   42.20    2.00
   5  -2   9   98.89    3.90
  -5  -2  -9  101.29    3.80
  -5  -2  -9   97.89    3.80
   5  -2   9  100.39    3.80
  -5  -2  -9   98.89    4.00
   5  -2   9  119.19    5.00
  -5  -2  -9  101.99    3.90
  -5  -2  -9  103.29    3.80
  -5   2  -9  105.39    4.00
  -5   2  -9  104.09    4.00
  -5   2  -9   91.09    4.60
  -5   2  -9  107.99    3.90
   5   2   9  108.59    4.00
   5   2   9  108.49    3.70
   5   2   9  101.69    3.90
  -6  -2  -9   60.29    2.40
  -6  -2  -9   68.09    2.40
  -6  -2  -9   67.49    2.40
   6  -2   9   66.99    2.50
  -6  -2  -9   64.69    2.50
   6   2   9   71.09    2.80
  -6   2  -9   71.39    3.10
  -6   2  -9   68.89    2.90
  -6   2  -9   75.59    3.10
   6   2   9   72.69    2.50
  11  -3  -9    5.40    0.60
 -11  -3   9    5.60    0.70
  11  -3  -9    4.70    0.50
 -11   3   9    5.30    0.40
  11   3  -9    6.20    0.50
  11   3  -9    5.20    0.50
  11   3  -9    6.40    0.40
 -10  -3   9   21.20    1.30
 -10  -3   9   19.80    1.60
  10  -3  -9   23.00    1.50
 -10  -3   9   22.10    0.90
  10  -3  -9   22.60    1.90
  10  -3  -9   22.50    1.10
  10   3  -9   24.40    1.00
 -10   3   9   24.40    1.10
  10   3  -9   25.20    1.40
  10   3  -9   23.60    1.10
 -10   3   9   23.70    0.90
  10   3  -9   20.90    1.20
  10   3  -9   22.00    1.80
   9  -3  -9   57.39    2.80
   9  -3  -9   60.79    2.40
  -9  -3   9   59.49    2.80
  -9  -3   9   60.89    2.20
  -9  -3   9   59.59    3.20
   9  -3  -9   54.49    3.10
   9  -3  -9   55.69    2.90
   9   3  -9   64.89    2.40
   9   3  -9   64.59    2.50
  -9   3   9   64.89    2.60
   9   3  -9   63.59    3.00
   9   3  -9   65.09    2.60
  -9   3   9   64.09    2.30
   9   3  -9   60.69    2.60
   9   3  -9   63.19    2.50
  -9   3   9   62.49    2.40
   8  -3  -9   38.00    2.20
  -8  -3   9   38.70    1.60
   8  -3  -9   37.20    2.20
   8  -3  -9   36.50    2.40
   8  -3  -9   38.00    1.80
  -8  -3   9   37.40    1.60
  -8  -3   9   37.90    2.10
  -8   3   9   40.10    2.20
  -8   3   9   40.00    1.80
  -8   3   9   40.70    1.70
  -8   3   9   38.90    1.70
   8   3  -9   40.70    1.80
   8   3  -9   41.40    2.30
  -8   3   9   41.30    1.60
   8   3  -9   41.70    1.70
  -8   3   9   43.10    1.90
   8   3  -9   42.00    1.90
   8   3  -9   40.50    1.90
   8   3  -9   46.60    2.20
   7  -3  -9  125.89    4.70
   7  -3  -9  119.29    5.30
  -7  -3   9  127.49    5.20
  -7  -3   9  124.09    4.50
  -7   3   9  131.49    4.70
   7   3  -9  126.29    5.00
  -7   3   9  133.79    4.80
  -7   3   9  132.49    4.70
  -7   3   9  135.09    5.30
  -7   3   9  130.09    4.90
   7   3  -9  135.29    4.80
   7   3  -9  134.19    4.70
   7   3  -9  131.79    4.90
   7   3  -9  135.29    4.90
   7   3  -9  132.49    5.50
  -7   3   9  135.69    4.60
   6  -3  -9  181.58    7.80
  -6  -3   9  216.08    7.70
  -6  -3   9  213.18    8.10
   6  -3  -9  207.38    8.70
  -6  -3   9  195.88    7.60
  -6   3   9  251.97    9.00
   6   3  -9  251.07    9.20
  -6   3   9  229.78    8.20
  -6   3   9  228.88    8.10
   6   3  -9  241.18    8.30
  -6   3   9  235.98    8.30
   6   3  -9  230.08    8.30
   6   3  -9  231.68    9.00
   6   3  -9  238.98    8.40
  -6   3   9  226.88    8.20
   6   3  -9  240.78    8.30
  -6   3   9  234.58    8.70
   5  -3  -9   15.70    1.10
  -5  -3   9   15.40    1.30
  -5  -3   9   15.80    1.00
   5  -3  -9   13.10    1.40
  -5  -3   9   16.90    1.50
   5  -3  -9   15.60    1.80
  -5  -3   9   14.30    0.90
  -5   3   9   17.20    0.80
  -5   3   9   17.80    1.10
  -5   3   9   17.70    0.90
   5   3  -9   17.10    1.10
  -5   3   9   17.80    1.00
   5   3  -9   17.70    1.50
  -5   3   9   16.30    1.40
   5   3  -9   15.30    1.10
   5   3  -9   17.50    0.90
   5   3  -9   18.90    1.00
   5   3  -9   17.60    1.00
  -5   3   9   17.00    1.00
  -4  -3   9   15.30    1.00
   4  -3  -9   15.90    1.30
  -4  -3   9   13.90    1.90
   4  -3  -9   14.40    1.40
   4  -3  -9   16.50    1.00
  -4  -3   9   16.40    1.30
  -4  -3   9   16.30    1.80
   4  -3  -9   15.20    1.60
  -4  -3   9   15.60    1.50
  -4  -3   9   16.80    1.00
   4  -3  -9   16.50    1.50
   4   3  -9   16.80    1.20
  -4   3   9   18.70    1.40
  -4   3   9   17.20    0.80
   4   3  -9   18.10    0.90
   4   3  -9   17.60    1.50
  -4   3   9   17.50    1.00
  -4   3   9   17.80    0.90
   4   3  -9   17.50    1.00
   4   3  -9   18.90    1.10
  -4   3   9   17.30    1.10
  -4   3   9   17.30    0.90
   4   3  -9   17.60    1.00
  -3  -3   9   51.29    3.20
   3  -3  -9   56.79    3.10
  -3  -3   9   55.89    2.70
  -3  -3   9   54.19    2.40
  -3  -3   9   55.99    2.60
  -3  -3   9   53.69    2.60
   3  -3  -9   53.59    2.40
  -3  -3   9   52.89    2.30
   3  -3  -9   50.39    2.70
  -3  -3   9   51.59    3.50
   3  -3  -9   55.69    3.00
  -3   3   9   59.49    2.30
  -3   3   9   59.09    2.40
  -3   3   9   58.79    2.80
   3   3  -9   57.69    2.30
  -3   3   9   57.69    2.20
   3   3  -9   55.59    2.60
  -3   3   9   57.79    2.30
   3   3  -9   59.59    2.50
   3   3  -9   59.69    3.00
   3   3  -9   59.49    2.40
  -3   3   9   56.79    2.50
   3   3  -9   61.49    2.40
   2  -3  -9  103.89    4.70
  -2  -3   9  108.19    4.30
   2  -3  -9  112.29    5.00
   2  -3  -9  104.89    4.10
  -2  -3   9   97.19    5.00
  -2  -3   9  110.49    4.50
  -2  -3   9  107.19    4.10
  -2  -3   9  104.49    4.10
   2   3  -9  117.39    4.30
  -2   3   9  120.29    4.30
   2   3  -9  114.29    4.60
  -2   3   9  115.59    4.10
  -2   3   9  115.99    4.80
   2   3  -9  113.69    5.00
   2   3  -9  116.19    4.40
   2   3  -9  116.09    4.20
   2   3  -9  117.89    4.40
  -2   3   9  114.29    4.50
  -2   3   9  120.29    4.20
  -1  -3   9   42.80    2.30
   1  -3  -9   39.10    2.30
   1  -3  -9   39.50    1.80
   1  -3  -9   43.10    2.30
   1  -3  -9   38.70    1.90
  -1  -3   9   38.30    2.60
  -1  -3   9   42.10    1.90
  -1  -3   9   41.30    2.10
  -1  -3   9   43.00    2.00
   1  -3  -9   42.40    2.60
  -1   3   9   43.30    1.90
   1   3  -9   44.80    2.00
  -1   3   9   46.70    1.90
   1   3  -9   44.60    1.80
  -1   3   9   45.20    1.80
   1   3  -9   45.00    1.90
  -1   3   9   45.90    2.10
   1   3  -9   46.70    2.20
   1   3  -9   45.10    2.10
  -1   3   9   45.60    2.00
  -1   3   9   46.20    2.40
   1   3  -9   44.30    2.60
   0  -3  -9   13.60    0.90
   0  -3  -9   15.20    1.30
   0  -3   9   16.50    1.60
   0  -3   9   14.30    2.10
   0  -3   9   14.80    1.00
   0  -3   9   15.20    1.10
   0  -3  -9   14.40    1.50
   0  -3  -9   14.10    1.00
   0  -3  -9   13.70    1.30
   0  -3   9   14.90    1.10
   0   3   9   18.60    1.00
   0   3  -9   16.80    1.00
   0   3   9   16.70    1.10
   0   3  -9   18.90    1.70
   0   3   9   14.50    1.50
   0   3  -9   18.80    1.20
   0   3  -9   17.60    1.10
   0   3   9   16.90    1.00
   0   3   9   17.70    0.90
   0   3  -9   17.20    0.90
   0   3  -9   17.60    1.00
   0   3   9   16.70    1.00
   1  -3   9   32.30    1.90
  -1  -3  -9   31.90    2.10
  -1  -3  -9   31.30    1.60
  -1  -3  -9   30.80    1.90
   1  -3   9   31.50    1.60
  -1  -3  -9   31.50    1.50
   1  -3   9   29.50    1.60
  -1  -3  -9   32.70    1.90
   1  -3   9   28.30    1.80
  -1  -3  -9   32.20    1.90
   1   3   9   34.70    1.50
  -1   3  -9   33.80    1.60
  -1   3  -9   27.50    2.60
   1   3   9   33.80    1.80
   1   3   9   35.00    1.60
  -1   3  -9   33.90    1.80
  -1   3  -9   35.30    1.40
   1   3   9   34.30    1.40
  -1   3  -9   34.00    1.60
  -1   3  -9   38.00    2.10
   1   3   9   35.70    2.10
  -2  -3  -9   32.20    2.10
   2  -3   9   33.50    1.70
  -2  -3  -9   33.10    1.50
   2  -3   9   31.90    1.60
   2  -3   9   33.40    2.00
  -2  -3  -9   33.30    1.60
   2  -3   9   32.40    1.70
  -2  -3  -9   32.60    1.80
   2  -3   9   32.70    2.60
  -2  -3  -9   33.40    1.90
  -2   3  -9   37.10    1.60
   2   3   9   38.80    1.70
  -2   3  -9   34.10    1.70
   2   3   9   37.80    1.70
  -2   3  -9   37.00    1.90
   2   3   9   36.90    1.50
  -2   3  -9   37.70    1.80
  -2   3  -9   36.90    1.50
   2   3   9   36.80    1.60
  -2   3  -9   35.90    2.50
   2   3   9   36.90    1.80
  -3  -3  -9    4.00    0.90
  -3  -3  -9    3.50    1.10
  -3  -3  -9    5.20    0.60
  -3  -3  -9    4.40    0.50
   3  -3   9    5.80    0.80
   3  -3   9    4.80    0.90
   3  -3   9    5.10    0.80
   3  -3   9    2.90    1.40
  -3  -3  -9    4.60    0.80
   3   3   9    5.90    0.50
  -3   3  -9   -1.30   17.80
   3   3   9    5.20    0.60
  -3   3  -9    5.80    0.80
  -3   3  -9    4.60    0.50
  -3   3  -9    4.50    0.60
   3   3   9    3.80    0.90
  -4  -3  -9   27.70    1.30
   4  -3   9   28.80    1.40
  -4  -3  -9   27.10    1.40
  -4  -3  -9   27.30    1.60
  -4  -3  -9   28.10    1.50
   4  -3   9   28.30    1.30
   4  -3   9   28.60    2.30
   4  -3   9   28.30    2.00
   4  -3   9   25.30    2.30
  -4  -3  -9   28.50    1.30
   4   3   9   31.50    1.40
  -4   3  -9   30.30    1.20
   4   3   9   30.10    1.40
   4   3   9   31.30    1.50
   4   3   9   29.70    1.50
   4   3   9   33.00    1.30
  -4   3  -9   32.30    1.60
  -5  -3  -9    6.70    0.60
   5  -3   9    6.80    0.60
   5  -3   9    6.40    1.00
  -5  -3  -9    5.20    0.50
  -5  -3  -9    6.40    0.50
   5   3   9    6.60    0.60
   5   3   9    6.20    0.50
   5   3   9    6.80    0.40
  -5   3  -9    6.90    0.50
 -10  -4   9   26.10    1.80
  10  -4  -9   30.10    1.50
 -10  -4   9   33.60    1.70
  10   4  -9   35.10    1.30
 -10   4   9   34.70    1.40
  10   4  -9   37.00    1.40
  10   4  -9   30.90    1.40
 -10   4   9   34.90    1.30
  -9  -4   9   69.09    2.70
   9  -4  -9   68.89    2.40
  -9  -4   9   64.29    3.00
   9  -4  -9   58.59    3.10
  -9  -4   9   60.49    2.80
   9   4  -9   85.09    3.10
   9   4  -9   71.19    3.40
  -9   4   9   77.09    2.90
  -9   4   9   75.69    2.60
   9   4  -9   73.89    2.90
   9   4  -9   81.39    3.30
   9   4  -9   74.19    2.70
  -9   4   9   70.49    2.90
   8  -4  -9   28.10    1.70
   8  -4  -9   31.20    1.70
  -8  -4   9   27.90    1.40
  -8  -4   9   29.40    1.70
   8  -4  -9   30.20    1.30
  -8  -4   9   30.20    2.10
  -8   4   9   32.90    1.20
  -8   4   9   30.70    1.40
  -8   4   9   29.30    1.30
   8   4  -9   31.00    1.50
   8   4  -9   33.00    1.30
   8   4  -9   27.80    1.80
   8   4  -9   32.20    1.40
  -8   4   9   33.60    1.50
  -8   4   9   32.90    1.30
   8   4  -9   29.80    1.60
  -7  -4   9    8.70    0.90
   7  -4  -9    7.50    0.90
  -7  -4   9    8.90    1.00
   7  -4  -9    8.50    0.70
   7  -4  -9    8.30    1.00
  -7  -4   9    8.30    1.30
  -7  -4   9    8.50    0.70
  -7   4   9    9.10    0.70
   7   4  -9   10.10    0.60
   7   4  -9   10.40    0.70
   7   4  -9    7.40    1.60
  -7   4   9   10.10    0.70
  -7   4   9   10.10    0.50
  -7   4   9    8.70    0.80
   7   4  -9    9.50    1.10
   7   4  -9   10.50    0.80
  -7   4   9    8.80    0.70
  -7   4   9    9.60    1.00
  -6  -4   9  194.78    7.30
   6  -4  -9  200.08    7.60
  -6  -4   9  203.98    7.50
  -6  -4   9  175.98    7.20
  -6  -4   9  192.08    8.10
   6  -4  -9  195.48    7.00
   6  -4  -9  206.88    7.70
   6   4  -9  253.47    8.40
   6   4  -9  224.78    7.90
  -6   4   9  216.78    8.30
  -6   4   9  220.58    7.80
  -6   4   9  240.88    8.00
   6   4  -9  222.28    7.80
  -6   4   9  219.68    7.70
  -6   4   9  224.38    8.00
  -6   4   9  221.68    7.90
   6   4  -9  223.18    8.50
  -5  -4   9  122.99    4.70
  -5  -4   9  128.69    5.00
   5  -4  -9  128.09    5.50
  -5  -4   9  128.99    5.20
   5  -4  -9  128.09    4.60
   5  -4  -9  126.69    5.20
  -5  -4   9  124.99    5.90
  -5   4   9  141.79    5.10
  -5   4   9  144.29    5.80
  -5   4   9  140.19    5.20
  -5   4   9  139.59    4.90
   5   4  -9  138.99    5.00
   5   4  -9  142.89    5.80
   5   4  -9  142.39    5.10
   5   4  -9  135.69    5.20
   5   4  -9  145.99    5.20
  -5   4   9  139.39    5.00
   5   4  -9  144.19    5.20
  -5   4   9  141.39    5.00
   4  -4  -9  114.29    4.80
   4  -4  -9  119.39    4.30
  -4  -4   9  115.59    5.50
  -4  -4   9  120.19    4.80
   4  -4  -9  119.79    5.10
  -4  -4   9  118.29    4.20
  -4  -4   9  116.19    4.30
  -4  -4   9  115.39    4.40
  -4  -4   9  102.09    4.70
   4  -4  -9  120.79    5.10
  -4  -4   9  110.59    5.40
  -4   4   9  133.49    4.70
   4   4  -9  134.59    4.80
  -4   4   9  131.19    4.70
   4   4  -9  127.79    4.70
   4   4  -9  131.59    4.90
   4   4  -9  126.29    4.90
  -4   4   9  126.99    4.90
   4   4  -9  137.19    4.80
  -4   4   9  132.29    4.80
  -4   4   9  131.19    4.60
   4   4  -9  133.79    5.50
  -4   4   9  132.49    5.30
  -3  -4   9   99.19    3.80
  -3  -4   9  102.09    4.90
  -3  -4   9  102.39    3.90
   3  -4  -9   84.89    3.70
  -3  -4   9   99.79    4.20
  -3  -4   9  101.19    3.70
   3  -4  -9  112.19    4.70
   3  -4  -9  103.29    4.50
  -3  -4   9  100.79    5.10
   3  -4  -9  100.59    4.20
   3   4  -9  114.09    4.10
  -3   4   9  113.19    4.10
  -3   4   9  111.59    4.30
   3   4  -9  116.79    4.30
   3   4  -9  117.29    4.20
  -3   4   9  111.89    4.00
  -3   4   9  121.09    4.30
  -3   4   9  114.99    4.70
   3   4  -9  109.99    4.80
   3   4  -9  117.99    4.30
  -3   4   9  114.79    4.10
   3   4  -9  110.29    4.40
  -2  -4   9    5.80    1.10
   2  -4  -9    4.70    0.90
   2  -4  -9    4.30    0.80
  -2  -4   9    3.90    1.40
  -2  -4   9    4.00    0.60
   2  -4  -9    4.60    0.80
  -2  -4   9    4.80    0.60
   2  -4  -9    5.20    1.00
  -2  -4   9    4.60    0.60
  -2  -4   9    3.10    1.20
  -2   4   9    6.70    0.60
  -2   4   9    4.40    1.00
   2   4  -9    5.20    0.70
   2   4  -9    5.80    0.60
   2   4  -9    5.20    0.50
   2   4  -9    5.50    1.20
  -2   4   9    4.70    0.50
  -2   4   9    5.80    0.40
  -2   4   9    6.20    0.50
  -2   4   9    4.30    0.60
   2   4  -9    5.80    0.50
   2   4  -9    5.50    0.60
  -1  -4   9    4.50    1.10
   1  -4  -9    5.00    0.90
  -1  -4   9    4.20    0.50
  -1  -4   9    4.90    1.40
   1  -4  -9    5.50    0.80
  -1  -4   9    5.00    0.60
  -1  -4   9    4.30    0.80
  -1  -4   9    5.30    0.60
   1  -4  -9    5.80    1.10
  -1   4   9    8.70    1.90
  -1   4   9    6.40    0.50
   1   4  -9    5.60    0.70
   1   4  -9    5.60    0.60
  -1   4   9    6.80    0.50
  -1   4   9    6.70    0.60
   1   4  -9    5.60    0.50
  -1   4   9    6.60    0.40
   1   4  -9    5.70    0.60
   1   4  -9    6.60    1.30
   1   4  -9    5.00    0.50
   0  -4   9   83.19    3.20
   0  -4  -9   80.09    3.60
   0  -4   9   80.59    3.20
   0  -4   9   80.99    3.40
   0  -4   9   82.09    4.60
   0  -4  -9   83.29    3.50
   0  -4  -9   83.29    3.90
   0  -4  -9   83.09    3.50
   0  -4   9   78.39    4.50
   0   4   9   88.89    5.00
   0   4   9   96.19    3.50
   0   4  -9   94.09    3.60
   0   4  -9   92.79    3.70
   0   4   9   91.19    3.30
   0   4  -9   91.89    3.50
   0   4  -9   94.09    3.60
   0   4  -9   95.69    3.40
   0   4   9   95.19    3.50
   0   4   9   93.29    3.60
   0   4   9   90.89    3.90
  -1  -4  -9    3.00    1.00
  -1  -4  -9    1.40    0.60
   1  -4   9    2.70    0.70
  -1  -4  -9    2.50    0.70
   1  -4   9    6.80    4.60
  -1   4  -9    3.00    0.50
   1   4   9    2.40    0.50
   1   4   9    3.50    0.40
   1   4   9    3.40    0.40
  -1   4  -9    3.50    0.40
   1   4   9    2.30    0.40
  -1   4  -9    2.90    0.40
   1   4   9    3.40    0.30
  -1   4  -9    3.00    0.50
  -2  -4  -9    8.30    0.80
   2  -4   9    8.30    1.40
   2  -4   9    9.30    0.90
   2  -4   9    8.30    1.30
   2  -4   9    8.30    0.70
  -2  -4  -9    9.30    1.00
  -2  -4  -9    8.20    0.80
   2  -4   9    8.80    0.60
  -2   4  -9   11.00    0.90
  -2   4  -9   10.10    0.60
   2   4   9    9.30    0.80
   2   4   9   10.20    0.70
  -2   4  -9   11.20    0.80
  -2   4  -9   10.30    0.70
   2   4   9   10.60    0.60
   2   4   9    9.00    0.60
  -2   4  -9    9.80    0.80
   2   4   9    9.70    0.70
  -3  -4  -9   19.10    1.10
   3  -4   9   17.00    1.70
   3  -4   9   20.30    2.00
  -3  -4  -9   19.40    1.10
   3  -4   9   15.00    1.10
  -3  -4  -9   16.20    1.50
   3   4   9   21.50    1.10
  -3   4  -9   21.40    1.20
  -3   4  -9   22.00    1.20
   3   4   9   19.90    1.10
  -3   4  -9   21.00    0.90
   3   4   9   21.10    1.00
   3   4   9   22.70    0.90
  -4  -4  -9   71.59    2.90
   4  -4   9   70.59    3.40
  -4  -4  -9   74.29    2.80
  -4  -4  -9   75.49    2.80
   4  -4   9   73.09    2.60
   4  -4   9   68.39    3.50
   4   4   9   80.19    3.00
  -4   4  -9   79.99    2.80
   4   4   9   84.79    2.90
  -4   4  -9   81.69    3.10
   8  -5  -9   57.19    2.30
  -8  -5   9   51.39    2.20
  -8  -5   9   56.49    2.20
  -8  -5   9   52.69    2.50
  -8   5   9   68.89    2.30
   8   5  -9   53.19    2.50
  -8   5   9   61.39    2.30
  -8   5   9   64.39    2.20
   8   5  -9   64.99    2.30
   7  -5  -9   48.40    2.20
  -7  -5   9   48.10    2.50
   7  -5  -9   49.80    2.20
  -7  -5   9   45.90    2.00
  -7  -5   9   49.99    2.20
   7   5  -9   53.59    2.00
   7   5  -9   55.59    2.10
  -7   5   9   52.69    2.10
  -7   5   9   54.19    2.00
  -7   5   9   56.89    2.00
  -6  -5   9    6.20    0.50
   6  -5  -9    6.80    1.00
   6  -5  -9    6.70    0.80
  -6  -5   9    6.70    1.00
  -6  -5   9    5.00    0.90
  -6  -5   9    6.50    0.80
   6   5  -9    5.90    0.40
   6   5  -9    6.10    0.80
  -6   5   9    6.50    0.50
  -6   5   9    6.40    0.40
  -6   5   9    6.30    0.50
  -6   5   9    6.90    0.80
   6   5  -9    6.90    0.50
  -5  -5   9    0.70    2.70
   5  -5  -9    4.40    0.70
  -5  -5   9    5.30    1.00
  -5  -5   9    5.90    0.70
  -5  -5   9    4.60    0.70
   5   5  -9    4.20    0.40
   5   5  -9    6.00    0.80
  -5   5   9    4.30    0.50
   5   5  -9    5.00    0.40
   5   5  -9    4.70    0.50
   5   5  -9    3.90    1.20
  -5   5   9    4.50    0.30
   5   5  -9    4.10    0.50
  -5   5   9    4.70    0.50
  -5   5   9    6.20    0.50
  -5   5   9    4.80    0.40
  -4  -5   9    2.50    0.90
   4  -5  -9    2.40    0.60
  -4  -5   9    1.60    0.90
  -4  -5   9    2.60    0.40
   4  -5  -9    2.60    0.70
  -4  -5   9    2.30    0.60
  -4   5   9    2.90    0.40
  -4   5   9    4.40    0.80
   4   5  -9    2.90    0.60
  -4   5   9    2.70    0.40
   4   5  -9    2.80    0.40
   4   5  -9    3.00    0.40
  -4   5   9    2.90    0.30
   4   5  -9    3.10    0.50
  -4   5   9    2.20    0.30
   4   5  -9    3.10    0.30
   3  -5  -9    7.60    0.90
   3  -5  -9    7.80    0.90
  -3  -5   9    8.00    0.90
  -3  -5   9    7.80    1.30
  -3  -5   9    9.30    0.80
   3  -5  -9    8.40    0.80
  -3  -5   9    8.90    1.20
  -3  -5   9    8.70    0.60
  -3   5   9    9.60    0.60
  -3   5   9   10.00    0.60
  -3   5   9    9.70    0.60
   3   5  -9   10.10    0.60
  -3   5   9   10.10    0.50
  -3   5   9    9.90    0.80
   3   5  -9    9.30    0.60
   3   5  -9    9.50    0.70
   3   5  -9    9.30    0.70
  -2  -5   9   57.59    3.30
  -2  -5   9   61.79    2.40
  -2  -5   9   58.49    3.00
   2  -5  -9   65.79    3.00
   2  -5  -9   57.59    2.60
   2  -5  -9   61.09    2.80
  -2  -5   9   61.89    2.90
  -2  -5   9   56.89    2.60
  -2   5   9   66.99    2.60
   2   5  -9   66.89    2.40
   2   5  -9   65.29    2.50
  -2   5   9   63.79    2.50
  -2   5   9   65.89    2.40
   2   5  -9   65.49    2.60
   2   5  -9   67.29    2.60
  -2   5   9   67.39    2.50
  -1  -5   9   26.00    2.10
   1  -5  -9   25.70    1.60
  -1  -5   9   25.10    1.40
   1  -5  -9   25.20    1.50
   1  -5  -9   23.30    1.30
   1  -5  -9   26.30    1.40
  -1  -5   9   24.10    1.60
   1   5  -9   29.80    1.70
  -1   5   9   29.00    1.20
  -1   5   9   30.00    1.60
   1   5  -9   28.50    1.50
   1   5  -9   28.80    1.30
  -1   5   9   29.00    1.30
   1   5  -9   27.80    1.20
   0  -5  -9   23.40    1.30
   0  -5  -9   24.30    1.20
   0  -5   9   23.60    1.30
   0  -5   9   24.10    1.90
   0  -5  -9   22.00    1.40
   0  -5   9   21.60    1.40
   0  -5  -9   23.20    1.50
   0  -5   9   22.40    1.70
   0   5  -9   26.90    1.20
   0   5  -9   25.40    1.20
   0   5   9   26.00    1.10
   0   5  -9   27.40    1.10
   0   5  -9   25.50    1.20
   0   5   9   26.00    1.20
   0   5   9   26.40    1.10
   0   5   9   25.40    1.10
   0   5  -9   25.80    1.30
  -1  -5  -9    1.20    0.40
  -1  -5  -9    1.10    0.40
   1  -5   9    2.10    0.60
  -1  -5  -9    1.10    0.40
   1  -5   9    5.50    3.10
  -1   5  -9   38.70   13.60
   2  -5   9    9.90    1.10
  -2  -5  -9   10.20    0.70
  -2  -5  -9   10.00    0.70
  -2  -5  -9    9.80    0.80
   2  -5   9   11.00    1.10
  -2   5  -9   11.50    0.50
  -2   5  -9   10.50    0.70
   2   5   9   10.80    0.60
  -2   5  -9   10.60    0.60
   2   5   9   10.40    0.50
  -3  -6   9   36.70    2.00
  -3  -6   9   36.00    2.20
   3  -6  -9   29.60    1.50
  -3   6   9   34.10    1.30
   3   6  -9   36.20    1.40
  12   0 -10    1.50    0.40
 -12   0  10    2.00    0.30
 -12   0  10    1.30    0.40
 -12   0  10    1.90    0.30
  11   0 -10    4.80    0.60
 -11   0  10    5.00    0.60
 -11   0  10    5.00    0.60
  10   0 -10    0.40    0.20
   9   0 -10    2.00    0.70
  -9   0  10    0.60    0.20
  -9   0  10    1.30    0.40
   9   0 -10    1.20    0.50
  -9   0  10   -0.20    0.30
  -9   0  10    0.60    0.20
   8   0 -10   -0.10    0.20
  -8   0  10    0.10    0.20
  -8   0  10    0.00    0.10
  -8   0  10    0.10    0.20
  -8   0  10    0.20    0.20
   8   0 -10    0.10    0.30
  -7   0  10    8.20    0.80
   7   0 -10    7.70    0.80
   7   0 -10    7.90    1.00
  -7   0  10    7.50    0.80
  -7   0  10    8.10    0.80
  -7   0  10    8.80    1.20
   6   0 -10  169.48    6.70
  -6   0  10  175.38    6.50
   6   0 -10  178.68    6.60
  -6   0  10  182.98    6.50
  -6   0  10  176.38    6.60
   6   0 -10  186.78    7.00
   5   0 -10    0.20    0.20
  -5   0  10    0.60    0.30
  -5   0  10    0.60    0.30
  -5   0  10    0.10    0.30
  -4   0  10   63.39    2.60
  -4   0  10   65.29    3.10
   4   0 -10   59.99    2.70
  -4   0  10   58.59    2.60
   4   0 -10   59.49    2.80
  -4   0  10   61.49    3.00
  -3   0  10   20.90    1.60
   3   0 -10   21.70    1.30
  -3   0  10   20.70    1.30
  -3   0  10   19.80    1.60
  -3   0  10   22.90    1.80
   3   0 -10   19.10    1.50
   3   0 -10   25.50    2.60
   3   0 -10   22.00    1.80
  -3   0  10   25.40    2.00
   2   0 -10   40.40    2.60
  -2   0  10   45.30    2.50
  -2   0  10   47.40    3.10
  -2   0  10   43.30    1.70
   2   0 -10   43.30    2.10
   2   0 -10   51.59    3.10
   2   0 -10   43.50    2.20
  -2   0  10   37.90    2.10
  -2   0  10   40.90    2.20
  -2   0  10   41.60    2.10
  -1   0  10   82.09    3.90
   1   0 -10   77.09    3.90
  -1   0  10   79.69    3.00
  -1   0  10   76.69    3.50
  -1   0  10   81.89    3.90
   1   0 -10   83.59    4.00
  -1   0  10   79.09    3.90
   0   0  10  628.94   21.30
   0   0  10  578.14   20.50
   0   0  10  596.24   20.00
   0   0 -10  566.94   20.40
   0   0 -10  567.04   20.60
   0   0 -10  598.54   21.30
   0   0 -10  613.54   21.30
   0   0  10  621.94   21.20
   0   0  10  617.04   20.50
   0   0 -10  593.64   20.40
   0   0  10  568.54   20.40
  -1   0 -10  310.97   11.70
  -1   0 -10  341.37   12.60
   1   0  10  328.87   11.80
   1   0  10  342.47   12.50
   1   0  10  335.37   11.90
  -1   0 -10  335.07   11.80
   1   0  10  346.67   11.80
  -1   0 -10  327.77   11.90
   2   0  10    0.20    0.30
   2   0  10    0.70    0.30
  -2   0 -10    1.00    0.30
   2   0  10    1.80    0.80
  -2   0 -10    0.50    0.30
  -2   0 -10    0.90    0.30
   2   0  10    0.70    0.30
   2   0  10    0.80    0.30
  -3   0 -10   12.20    0.90
   3   0  10   12.20    1.20
   3   0  10   15.80    2.00
  -3   0 -10   10.40    1.30
   3   0  10   15.00    1.40
   3   0  10   10.90    1.80
   3   0  10   11.40    0.90
  -3   0 -10   11.90    1.00
  -4   0 -10    0.30    0.30
   4   0  10    0.20    0.30
  -4   0 -10    0.70    0.20
   4   0  10    0.30    0.20
  -4   0 -10    0.50    0.20
   4   0  10    0.60    0.20
   4   0  10    0.80    0.20
   5   0  10   19.10    1.00
  -5   0 -10   20.10    1.10
  11  -1 -10   93.09    4.40
 -11  -1  10  101.49    3.70
  11  -1 -10   95.19    3.70
 -11  -1  10   95.59    3.90
 -11  -1  10  104.29    3.80
 -11   1  10   97.49    3.60
 -11   1  10   97.29    3.60
 -10  -1  10   28.20    1.60
  10  -1 -10   27.60    1.40
 -10  -1  10   28.50    1.40
 -10  -1  10   27.50    1.30
 -10   1  10   28.20    1.40
  10   1 -10   29.80    1.40
 -10   1  10   29.50    1.30
 -10   1  10   28.60    1.40
 -10   1  10   28.30    1.80
  -9  -1  10   37.10    2.40
   9  -1 -10   33.80    1.70
  -9  -1  10   32.80    1.60
  -9  -1  10   32.80    1.60
  -9   1  10   28.60    2.50
   9   1 -10   33.70    1.30
   9   1 -10   35.00    2.00
  -9   1  10   32.90    1.60
  -9   1  10   37.50    1.80
  -9   1  10   34.90    1.80
   9   1 -10   34.20    1.70
  -8  -1  10   47.70    2.40
   8  -1 -10   44.40    2.20
  -8  -1  10   44.40    2.10
  -8  -1  10   45.20    2.00
   8   1 -10   46.10    2.10
   8   1 -10   48.90    2.50
  -8   1  10   47.50    2.10
  -8   1  10   45.70    2.20
  -8   1  10   45.40    2.50
   8   1 -10   47.90    1.80
  -8   1  10   46.70    2.10
  -7  -1  10   62.89    2.60
  -7  -1  10   57.79    3.20
  -7  -1  10   66.09    2.70
   7  -1 -10   62.49    2.80
  -7   1  10   63.09    2.80
  -7   1  10   67.09    2.70
   7   1 -10   66.69    2.50
  -7   1  10   64.29    2.80
   7   1 -10   66.19    2.80
   7   1 -10   61.49    2.60
   7   1 -10   68.49    3.20
  -7   1  10   70.99    3.50
  -6  -1  10  252.07    9.00
  -6  -1  10  253.67    8.90
   6  -1 -10  246.68    9.10
  -6  -1  10  253.77    9.40
   6   1 -10  256.27    9.00
  -6   1  10  249.28    9.30
  -6   1  10  268.37    9.50
   6   1 -10  258.37    8.80
   6   1 -10  257.37    9.20
  -6   1  10  265.27    9.80
   6   1 -10  269.37    9.70
  -6   1  10  264.47    9.20
  -6   1  10  237.88    9.10
  -6   1  10  257.87    8.80
  -5   1  10   45.00    1.70
   5   1 -10   45.00    1.80
  -5   1  10   44.40    2.40
   5   1 -10   44.80    1.90
  -5   1  10   43.90    2.00
   5   1 -10   45.10    2.10
  -5   1  10   44.60    2.50
   5   1 -10   46.20    2.50
   5   1 -10    5.50   14.20
  -4  -1  10    4.30    1.00
  -4  -1  10    4.00    0.80
  -4  -1  10    6.00    1.80
   4   1 -10    5.20    0.60
  -4   1  10    4.80    1.00
  -4   1  10    4.30    0.90
   4   1 -10    4.90    1.00
  -4   1  10    3.50    0.50
  -3  -1  10   66.89    3.30
   3  -1 -10   76.49    4.50
  -3  -1  10   68.69    3.30
  -3  -1  10   64.99    3.10
  -3  -1  10   68.99    3.20
   3  -1 -10   65.99    3.40
   3  -1 -10   78.29    3.90
  -3   1  10   81.09    4.00
   3   1 -10   69.39    2.60
   3   1 -10   67.09    3.60
  -3   1  10   69.49    2.70
   3   1 -10   58.79    3.10
   3   1 -10   71.99    3.50
  -3   1  10   70.59    3.40
  -3   1  10   65.89    2.70
  -2  -1  10  211.48    9.90
   2  -1 -10  261.87    9.70
  -2  -1  10  266.37    9.60
   2  -1 -10  266.77    9.70
  -2  -1  10  245.98    9.10
  -2   1  10  261.97   10.00
  -2   1  10  264.67    9.10
  -2   1  10  275.47    9.90
   2   1 -10  267.37   10.00
   2   1 -10  269.17   10.30
   2   1 -10  237.98    9.50
   1  -1 -10  243.48    9.30
   1  -1 -10  240.88    9.20
  -1  -1  10  230.78    8.60
   1  -1 -10  227.88    8.60
  -1  -1  10  239.98    9.10
  -1  -1  10  228.68    8.50
  -1  -1  10  240.18    9.20
  -1  -1  10  230.88    8.50
  -1   1  10  244.68    9.20
  -1   1  10  241.38    8.70
   1   1 -10  254.77    9.60
   1   1 -10  239.28    9.50
  -1   1  10  241.08    8.30
   1   1 -10  238.88    8.80
  -1   1  10  231.38    8.40
  -1   1  10  241.98    9.40
   1   1 -10  239.38    8.30
   1   1 -10  247.58    9.90
   1   1 -10  244.18    9.40
   0  -1  10  395.36   13.90
   0  -1  10  398.26   14.60
   0  -1 -10  387.66   13.90
   0  -1  10  398.16   14.00
   0  -1  10  411.86   14.80
   0  -1 -10  409.86   14.80
   0  -1 -10  391.06   14.00
   0  -1 -10  398.26   14.60
   0  -1  10  396.26   13.90
   0   1 -10  411.86   14.20
   0   1  10  406.96   14.10
   0   1  10  412.16   14.70
   0   1  10  409.96   13.70
   0   1 -10  423.06   14.90
   0   1 -10  385.06   14.30
   0   1  10  399.76   13.90
   0   1 -10  406.46   13.70
   0   1 -10  402.26   15.00
   0   1  10  410.36   14.90
   0   1 -10  385.96   14.20
   1  -1  10   33.50    2.40
  -1  -1 -10   34.60    2.40
  -1  -1 -10   31.70    1.70
  -1  -1 -10   33.10    1.80
   1  -1  10   32.40    1.70
   1  -1  10   29.50    1.80
  -1  -1 -10   31.30    2.10
   1  -1  10   34.80    2.30
   1  -1  10   31.50    1.80
   1   1  10   -2.90   15.70
   1   1  10   36.40    2.30
   1   1  10   34.10    1.40
   1   1  10   32.90    1.70
   1   1  10   32.60    1.50
  -1   1 -10   29.90    1.90
  -1   1 -10   32.20    1.70
   1   1  10   33.30    2.30
  -1   1 -10   32.60    2.30
  -1   1 -10   29.20    1.80
  -1   1 -10   32.90    2.40
   2  -1  10   95.49    3.80
   2  -1  10   95.49    3.90
  -2  -1 -10   95.79    3.90
   2  -1  10   97.19    4.40
  -2  -1 -10   90.09    4.10
   2  -1  10   94.99    4.60
  -2  -1 -10   98.49    4.30
   2  -1  10   92.39    3.70
  -2  -1 -10   93.99    3.80
  -2   1 -10   94.89    4.10
   2   1  10   95.99    3.70
   2   1  10   95.19    4.60
   2   1  10  101.99    4.00
  -2   1 -10  102.79    4.00
   2   1  10   99.19    3.50
  -2   1 -10   96.89    4.00
   2   1  10  101.29    4.70
  -2   1 -10  101.49    4.70
  -2   1 -10   98.09    4.60
   3  -1  10   87.79    4.00
  -3  -1 -10   84.29    4.00
  -3  -1 -10   93.49    3.60
  -3  -1 -10  103.59    4.60
  -3  -1 -10   95.49    3.70
   3  -1  10   88.39    3.70
   3  -1  10   92.39    3.80
   3   1  10   95.69    3.50
  -3   1 -10   98.89    4.40
   3   1  10  100.49    4.00
   3   1  10   91.69    4.50
   3   1  10   93.89    5.00
  -3   1 -10  112.49    5.10
  -3   1 -10  111.79    5.10
  -4  -1 -10    4.50    0.70
   4  -1  10    4.30    0.60
  -4  -1 -10    3.80    0.50
   4  -1  10    5.60    1.00
   4  -1  10    4.30    0.60
  -4  -1 -10    4.10    0.50
  -4  -1 -10    3.70    0.90
  -4  -1 -10    4.60    0.50
   4   1  10    4.80    0.60
  -4   1 -10    6.00    0.60
   4   1  10    4.40    0.30
  -4   1 -10    5.70    0.60
  -4   1 -10    4.90    1.00
  -5  -1 -10    9.50    0.60
  -5  -1 -10    8.90    0.70
   5  -1  10    7.90    0.70
  -5   1 -10   10.30    0.80
   5   1  10    9.30    0.80
  -5   1 -10   10.30    0.70
  11  -2 -10  103.99    3.70
 -11  -2  10  102.69    3.50
  11  -2 -10   93.79    4.00
  11  -2 -10   88.39    3.90
 -11  -2  10  103.29    3.80
 -11  -2  10  103.39    3.50
 -11  -2  10   97.09    4.00
  11   2 -10  111.09    4.10
 -11   2  10  107.29    4.00
  11   2 -10  117.29    3.90
  10  -2 -10    2.20    1.00
 -10  -2  10    2.10    0.40
 -10  -2  10    2.50    0.40
  10  -2 -10    2.60    0.50
 -10  -2  10    3.30    0.60
  10   2 -10    5.50    1.30
 -10   2  10    2.30    0.40
  10   2 -10    2.20    0.30
  10   2 -10    2.10    0.50
  -9  -2  10  238.78    8.20
  -9  -2  10  196.38    8.10
  -9  -2  10  229.38    8.40
   9  -2 -10  209.68    8.40
  -9  -2  10  246.78    9.30
   9   2 -10  186.48    7.00
  -9   2  10  185.08    7.60
   9   2 -10  217.78    7.40
   9   2 -10  197.98    6.90
  -9   2  10  201.58    7.10
   9   2 -10  189.08    6.80
  -8  -2  10   93.79    4.00
  -8  -2  10   91.39    3.60
  -8  -2  10   90.79    3.50
  -8  -2  10   91.29    4.00
   8  -2 -10   93.79    3.70
   8   2 -10   92.79    3.70
  -8   2  10   90.89    3.90
  -8   2  10   96.39    3.70
   8   2 -10   96.39    3.50
   8   2 -10   82.39    3.80
   8   2 -10   95.89    3.40
  -8   2  10  101.39    5.30
   8   2 -10   94.49    4.10
   8   2 -10   95.49    3.60
  -8   2  10   95.39    3.30
   7  -2 -10  211.78    7.80
  -7  -2  10  216.28    7.70
  -7  -2  10  213.18    7.70
  -7  -2  10  219.48    8.00
  -7   2  10  216.58    7.60
   7   2 -10  222.88    7.80
   7   2 -10  208.08    8.50
   7   2 -10  217.98    7.80
  -7   2  10  225.08    8.60
  -7   2  10  225.08    7.90
  -7   2  10  217.98    7.50
   7   2 -10  222.98    8.00
  -7   2  10  220.98    8.20
   7   2 -10  222.48    7.60
   7   2 -10  225.18    7.70
  -6  -2  10   20.70    1.50
   6  -2 -10   16.70    1.60
  -6  -2  10   19.20    1.40
  -6  -2  10   20.30    1.10
   6  -2 -10   19.80    1.20
  -6  -2  10   19.60    1.20
   6   2 -10   21.10    1.30
  -6   2  10   20.80    1.50
  -6   2  10   19.80    1.00
   6   2 -10   20.70    1.10
   6   2 -10   20.80    1.00
   6   2 -10   19.00    1.20
  -6   2  10   21.60    1.20
  -6   2  10   19.10    1.70
   6   2 -10   19.70    1.10
   6   2 -10   22.10    1.70
  -6   2  10   -0.20   10.70
  -6   2  10   20.30    0.90
  -5  -2  10   49.20    2.20
   5  -2 -10   49.00    2.30
  -5  -2  10   50.29    2.60
  -5  -2  10   50.69    2.50
   5  -2 -10   47.80    3.10
  -5  -2  10   52.79    2.60
   5   2 -10   52.39    2.10
   5   2 -10   50.89    2.40
   5   2 -10   52.49    2.30
   5   2 -10   53.09    2.20
  -5   2  10   52.69    2.00
  -5   2  10   52.29    2.90
  -5   2  10   53.29    2.30
  -5   2  10   51.49    2.20
   5   2 -10   53.39    2.20
   5   2 -10   53.39    2.80
  -5   2  10   53.29    2.10
  -5   2  10   53.29    2.10
  -5   2  10   52.89    2.60
   4  -2 -10   51.29    2.70
   4  -2 -10   48.30    2.30
  -4  -2  10   43.80    2.50
  -4  -2  10   49.30    2.50
  -4  -2  10   48.70    2.20
  -4  -2  10   49.80    2.20
  -4  -2  10   53.79    2.70
   4   2 -10   51.69    2.80
  -4   2  10   52.39    2.10
  -4   2  10   51.29    2.30
  -4   2  10   51.39    2.90
   4   2 -10   52.19    2.40
  -4   2  10   51.99    2.60
   4   2 -10   53.39    2.00
  -4   2  10   52.19    2.20
   4   2 -10   49.80    3.10
   4   2 -10   52.09    2.30
   4   2 -10   51.59    2.10
  -4   2  10   53.09    2.10
   4   2 -10   52.89    2.20
  -4   2  10   52.49    2.00
   3  -2 -10   33.30    2.10
  -3  -2  10   33.40    1.70
  -3  -2  10   33.70    2.60
  -3  -2  10   34.80    2.10
  -3  -2  10   34.70    1.90
   3  -2 -10   34.30    1.80
  -3  -2  10   34.90    1.80
  -3   2  10   37.40    1.80
  -3   2  10   35.30    2.10
  -3   2  10   35.50    1.40
  -3   2  10   34.60    1.60
   3   2 -10   36.60    1.60
   3   2 -10   36.00    1.50
   3   2 -10   37.50    2.30
  -3   2  10   36.50    1.60
  -3   2  10   36.10    1.70
   3   2 -10   36.00    1.70
  -3   2  10   38.00    2.50
   3   2 -10   36.90    1.70
   3   2 -10   34.60    2.50
   3   2 -10   34.60    1.80
  -2  -2  10    1.00    0.60
  -2  -2  10    3.30    0.80
   2  -2 -10    3.30    0.60
   2  -2 -10    2.80    0.90
   2  -2 -10    6.50    3.00
  -2  -2  10    2.00    0.60
  -2  -2  10    2.60    1.30
  -2  -2  10    2.20    0.80
  -2  -2  10    1.70    0.50
   2   2 -10   53.79   16.20
   1  -2 -10   93.19    4.40
   1  -2 -10  100.89    4.00
   1  -2 -10  102.19    4.10
   1  -2 -10  104.59    4.60
  -1  -2  10  103.79    4.10
   1  -2 -10  111.59    4.90
  -1  -2  10  104.49    4.10
  -1  -2  10  106.49    5.00
  -1  -2  10  102.09    4.60
  -1  -2  10  103.39    4.20
  -1   2  10  106.39    4.70
   1   2 -10  109.59    3.90
  -1   2  10  106.09    4.00
  -1   2  10  108.89    4.10
   1   2 -10  102.79    5.20
  -1   2  10  108.49    3.80
   1   2 -10  109.79    4.10
   1   2 -10  107.39    4.30
  -1   2  10  110.09    4.00
   1   2 -10  105.99    4.80
  -1   2  10  110.29    4.30
   0  -2  10   25.10    2.20
   0  -2  10   25.10    1.80
   0  -2  10   24.60    1.40
   0  -2  10   23.60    1.40
   0  -2 -10   22.00    1.50
   0  -2 -10   21.90    1.40
   0  -2 -10   25.20    1.70
   0   2 -10   25.60    1.60
   0   2 -10   26.20    1.40
   0   2  10   26.20    1.90
   0   2  10   27.10    1.40
   0   2 -10   12.90   15.80
   0   2 -10   25.20    2.20
   0   2  10   25.30    1.50
   0   2  10   27.00    1.30
   0   2 -10   26.10    1.20
   0   2  10   26.50    1.20
   0   2 -10   27.70    2.10
   0   2  10   26.00    1.30
  -1  -2 -10   70.29    3.00
  -1  -2 -10   67.19    3.40
   1  -2  10   71.09    3.00
   1  -2  10   72.29    3.50
  -1  -2 -10   69.89    2.90
  -1  -2 -10   72.09    3.30
   1  -2  10   71.29    3.10
  -1   2 -10   74.59    2.70
   1   2  10   74.99    2.70
   1   2  10   71.09    3.00
   1   2  10   74.99    3.10
  -1   2 -10   72.59    3.70
  -1   2 -10   74.99    3.20
   1   2  10   73.89    3.60
   1   2  10   75.59    2.90
   1   2  10   72.89    2.90
  -1   2 -10   70.59    3.80
  -2  -2 -10   51.49    2.20
  -2  -2 -10   51.09    2.30
   2  -2  10   48.30    2.70
   2  -2  10   50.19    2.30
  -2  -2 -10   53.69    2.50
  -2  -2 -10   49.70    2.60
  -2  -2 -10   48.50    3.00
   2  -2  10   51.99    2.30
   2   2  10   54.99    2.20
   2   2  10   46.60    3.30
  -2   2 -10   54.59    2.00
  -2   2 -10   59.09    4.20
   2   2  10   61.09    2.60
   2   2  10   53.09    2.30
   2   2  10   55.19    2.40
   2   2  10   55.69    2.10
  -2   2 -10   49.40    2.90
  -3  -2 -10    0.40    0.20
   3  -2  10    0.20    0.20
   3  -2  10    0.40    0.20
  -3  -2 -10    0.40    0.10
  -3  -2 -10    0.30    0.10
   3  -2  10    0.40    0.30
  -3   2 -10    0.30    0.30
  -3   2 -10    0.30    0.20
   3   2  10    1.30    0.50
   3   2  10    0.90    0.70
  -3   2 -10    0.60    0.30
  -3   2 -10    0.50    0.20
   4  -2  10    2.80    0.90
  -4  -2 -10    3.40    0.50
   4  -2  10    3.90    0.50
  -4  -2 -10    4.50    0.50
  -4  -2 -10    3.50    0.60
  -4  -2 -10    3.90    0.40
   4  -2  10    3.80    0.90
   4  -2  10    3.80    0.50
  -4  -2 -10    3.30    0.50
   4   2  10    4.00    0.50
  -4   2 -10    2.40    0.60
   4   2  10    3.70    0.30
  -4   2 -10    4.80    0.60
  -4   2 -10    3.70    0.50
   4   2  10    4.20    0.50
  -5  -2 -10    4.40    0.50
  -5  -2 -10    5.40    0.50
   5  -2  10    5.00    0.50
  -5  -2 -10    4.30    0.40
  -5  -2 -10    4.10    0.40
  -5   2 -10    5.90    0.60
  -5   2 -10    4.00    0.70
   5   2  10    5.20    0.40
   5   2  10    5.00    0.50
 -10  -3  10   58.09    2.70
  10  -3 -10   57.09    2.60
 -10  -3  10   59.29    2.50
  10  -3 -10   60.69    2.30
  10  -3 -10   56.89    2.50
 -10   3  10   65.59    2.50
  10   3 -10   63.99    2.50
  10   3 -10   66.79    2.30
  10   3 -10   67.99    2.60
   9  -3 -10   17.50    1.40
  -9  -3  10   19.00    1.30
  -9  -3  10   18.50    1.00
  -9  -3  10   19.40    1.60
  -9  -3  10   18.80    0.90
   9  -3 -10   16.90    1.30
   9  -3 -10   19.90    1.10
  -9   3  10   20.80    1.10
   9   3 -10   21.10    1.10
  -9   3  10   20.00    0.80
   9   3 -10   19.30    1.40
   9   3 -10   21.00    1.40
   9   3 -10   20.90    0.90
   9   3 -10   20.20    1.00
  -8  -3  10  145.09    5.50
   8  -3 -10  141.19    5.70
   8  -3 -10  138.79    5.60
  -8  -3  10  140.79    5.00
   8  -3 -10  141.39    5.20
  -8  -3  10  137.19    6.00
  -8  -3  10  136.99    5.00
   8   3 -10  149.29    5.50
   8   3 -10  156.58    5.70
   8   3 -10  148.59    5.60
  -8   3  10  149.69    5.40
  -8   3  10  156.88    5.60
   8   3 -10  174.48    6.50
   8   3 -10  156.08    5.40
   8   3 -10  152.38    5.50
  -8   3  10  150.18    5.30
  -7  -3  10   20.80    1.50
  -7  -3  10   22.50    1.60
  -7  -3  10   21.50    1.10
   7  -3 -10   22.90    1.30
   7  -3 -10   21.70    1.60
   7  -3 -10   23.00    1.60
  -7  -3  10   20.40    1.80
   7  -3 -10   21.50    1.50
  -7  -3  10   22.30    1.10
   7   3 -10   24.70    1.30
  -7   3  10   23.60    1.60
  -7   3  10   22.50    1.10
  -7   3  10   23.00    1.20
   7   3 -10   25.00    1.80
   7   3 -10   23.60    1.10
  -7   3  10   23.40    1.10
   7   3 -10   24.20    1.20
  -7   3  10   24.20    1.00
   7   3 -10   24.00    1.30
   7   3 -10   24.90    1.20
  -7   3  10   23.60    1.30
   6  -3 -10   76.99    3.00
  -6  -3  10   73.69    3.40
   6  -3 -10   72.39    3.60
  -6  -3  10   74.39    2.90
  -6  -3  10   77.39    3.40
   6  -3 -10   78.19    3.30
  -6  -3  10   74.59    2.90
  -6  -3  10   71.59    3.90
   6  -3 -10   69.89    3.40
  -6   3  10   84.89    3.70
  -6   3  10   84.19    3.00
   6   3 -10   83.19    3.20
  -6   3  10   83.89    3.30
   6   3 -10   84.49    3.80
  -6   3  10   83.99    3.10
   6   3 -10   86.49    3.40
  -6   3  10   81.29    3.20
   6   3 -10   84.19    3.10
  -6   3  10   83.49    3.10
   6   3 -10   79.99    3.30
   6   3 -10   85.29    3.20
  -5  -3  10   24.10    1.20
  -5  -3  10   23.30    2.10
   5  -3 -10   22.50    1.30
   5  -3 -10   24.00    1.80
  -5  -3  10   24.30    1.60
   5  -3 -10   23.10    1.60
  -5  -3  10   28.70    2.00
   5  -3 -10   22.60    1.70
  -5  -3  10   24.00    1.30
   5  -3 -10   24.10    1.80
   5   3 -10   25.80    1.40
   5   3 -10   25.00    1.90
   5   3 -10   26.10    1.20
  -5   3  10   25.80    1.40
  -5   3  10   25.30    1.20
   5   3 -10   26.20    1.30
  -5   3  10   25.70    1.30
   5   3 -10   27.60    1.30
  -5   3  10   27.20    1.70
  -5   3  10   25.00    1.20
   5   3 -10   26.40    1.50
  -5   3  10   26.80    1.10
  -4  -3  10  147.19    5.40
  -4  -3  10  151.28    5.80
   4  -3 -10  149.79    5.50
   4  -3 -10  152.28    6.20
   4  -3 -10  154.58    6.20
  -4  -3  10  135.99    6.50
  -4  -3  10  148.09    5.50
  -4  -3  10  140.59    6.40
  -4  -3  10  149.88    5.80
   4  -3 -10  141.39    5.80
   4   3 -10  157.48    5.90
   4   3 -10  172.38    6.40
  -4   3  10  164.28    6.00
  -4   3  10  168.58    6.20
   4   3 -10  159.98    5.80
  -4   3  10  160.38    5.80
   4   3 -10  164.28    5.90
   4   3 -10  168.78    6.20
  -4   3  10  163.68    5.70
  -3  -3  10   22.90    2.00
  -3  -3  10   23.20    1.30
   3  -3 -10   26.70    2.00
  -3  -3  10   24.90    1.50
  -3  -3  10   25.00    2.30
  -3  -3  10   26.90    1.60
  -3  -3  10   24.30    2.10
   3  -3 -10   23.40    1.30
   3  -3 -10   20.90    1.90
  -3  -3  10   22.90    1.40
   3   3 -10   25.30    1.90
  -3   3  10   24.90    1.60
   3   3 -10   28.50    1.30
   3   3 -10   28.60    1.20
  -3   3  10   27.20    1.50
  -3   3  10   29.30    2.10
   3   3 -10   28.00    2.70
  -3   3  10   27.30    1.20
   3   3 -10   23.00    1.60
  -3   3  10   26.60    1.10
  -3   3  10   24.60    1.30
   3   3 -10   26.50    1.40
  -2  -3  10    6.40    1.40
  -2  -3  10    6.70    0.90
  -2  -3  10    6.30    0.70
  -2  -3  10    6.30    0.70
   2  -3 -10    6.40    0.70
   2  -3 -10    5.60    1.00
  -2  -3  10    6.80    1.00
   2  -3 -10    6.20    1.10
  -2  -3  10    6.40    1.30
  -2   3  10    7.80    0.60
  -2   3  10    7.00    0.70
   2   3 -10    6.40    0.60
   2   3 -10    6.80    0.80
   2   3 -10    8.40    0.60
   2   3 -10    7.60    0.70
   2   3 -10    8.80    1.50
   2   3 -10    8.10    0.80
  -2   3  10    9.80    1.00
  -2   3  10    9.20    1.40
  -2   3  10    7.40    0.50
  -2   3  10    7.70    0.60
  -1  -3  10  128.49    6.50
  -1  -3  10  141.19    5.30
  -1  -3  10  140.09    5.20
   1  -3 -10  135.69    5.10
  -1  -3  10  147.79    5.60
   1  -3 -10  148.29    6.00
   1  -3 -10  131.29    5.60
  -1  -3  10  146.39    5.60
   1  -3 -10  144.19    5.50
   1  -3 -10  136.89    5.20
   1   3 -10  154.58    5.60
   1   3 -10  154.18    5.40
   1   3 -10  152.88    5.80
   1   3 -10  153.78    6.30
  -1   3  10  156.18    5.50
  -1   3  10  156.38    5.40
   1   3 -10  152.98    5.50
  -1   3  10  159.08    5.60
   1   3 -10  149.29    5.70
  -1   3  10  150.48    6.10
  -1   3  10  156.68    5.50
  -1   3  10  151.18    5.70
   0  -3 -10   83.99    3.20
   0  -3  10   82.09    3.60
   0  -3  10   81.39    4.50
   0  -3 -10   76.79    3.50
   0  -3 -10   81.89    3.20
   0  -3 -10   83.49    3.90
   0  -3 -10   83.39    3.50
   0  -3  10   81.99    3.30
   0  -3  10   82.79    3.30
   0  -3  10   82.19    3.40
   0   3  10   92.09    3.40
   0   3 -10   92.59    4.20
   0   3 -10   95.59    3.70
   0   3  10   88.69    3.40
   0   3 -10   91.69    3.30
   0   3  10   87.69    3.50
   0   3 -10   87.99    3.60
   0   3 -10   88.09    3.40
   0   3  10   88.89    3.30
   0   3 -10   91.19    3.50
   0   3  10   99.59    5.30
   0   3  10   90.09    3.60
  -1  -3 -10   45.50    2.50
  -1  -3 -10   46.20    2.10
   1  -3  10   45.60    3.10
   1  -3  10   46.50    2.00
  -1  -3 -10   46.80    2.30
   1  -3  10   47.40    2.40
  -1  -3 -10   48.80    2.30
   1  -3  10   46.10    2.10
   1   3  10   51.09    2.10
   1   3  10   50.69    2.30
  -1   3 -10   51.19    2.10
  -1   3 -10   51.19    2.00
  -1   3 -10   52.19    2.40
   1   3  10   51.39    2.20
   1   3  10   51.79    2.10
   1   3  10   52.59    2.00
   1   3  10   55.89    3.20
   2  -3  10  130.99    5.30
   2  -3  10  122.39    6.10
  -2  -3 -10  130.99    5.00
   2  -3  10  133.59    4.90
  -2  -3 -10  140.59    5.10
   2  -3  10  133.79    5.90
  -2  -3 -10  134.89    4.70
  -2  -3 -10  132.59    4.80
  -2  -3 -10  130.69    5.30
   2  -3  10  131.89    4.80
   2   3  10  148.79    5.50
  -2   3 -10  141.39    5.30
   2   3  10  143.69    5.30
  -2   3 -10  155.58    5.60
  -2   3 -10  147.99    5.20
   2   3  10  153.68    5.40
   2   3  10  152.08    5.50
   2   3  10  154.18    5.20
   3  -3  10   23.10    2.00
  -3  -3 -10   27.00    1.40
   3  -3  10   27.40    1.30
  -3  -3 -10   29.00    1.30
  -3  -3 -10   26.80    1.40
   3  -3  10   27.50    1.30
   3  -3  10   28.10    2.40
  -3  -3 -10   26.10    1.50
  -3  -3 -10   28.50    1.50
   3   3  10   30.60    1.50
  -3   3 -10   29.10    1.10
   3   3  10   29.60    1.30
  -3   3 -10   30.00    1.50
   3   3  10   29.90    1.20
   4  -3  10   37.60    2.10
  -4  -3 -10   43.50    1.80
   4  -3  10   37.20    2.40
  -4  -3 -10   41.50    1.70
   4  -3  10   42.50    1.70
  -4   3 -10   44.70    1.80
   4   3  10   46.80    1.90
   4   3  10   46.40    1.70
   4   3  10   44.10    1.80
   9  -4 -10   73.69    2.70
  -9  -4  10   75.99    3.00
   9  -4 -10   76.29    3.00
  -9  -4  10   72.79    3.30
   9  -4 -10   75.89    3.10
   9   4 -10   83.09    3.00
   9   4 -10   80.29    3.00
  -9   4  10   77.19    2.80
   9   4 -10   84.99    2.90
  -9   4  10   84.79    3.00
  -8  -4  10   47.70    2.90
  -8  -4  10   63.69    3.30
   8  -4 -10   56.89    2.50
   8  -4 -10   56.39    2.10
   8  -4 -10   52.29    2.50
  -8   4  10   58.09    2.40
   8   4 -10   58.19    2.80
   8   4 -10   59.69    2.40
   8   4 -10   69.19    2.40
   8   4 -10   60.39    2.50
  -8   4  10   60.29    2.30
  -8   4  10   66.59    2.30
  -7  -4  10   10.60    1.30
  -7  -4  10    9.10    1.00
   7  -4 -10   10.00    0.70
   7  -4 -10    9.60    1.00
  -7  -4  10    9.70    0.90
   7  -4 -10   11.00    1.00
   7   4 -10   10.70    0.80
  -7   4  10   12.50    0.90
   7   4 -10   10.60    0.80
   7   4 -10    9.30    0.70
  -7   4  10   10.30    0.70
   7   4 -10   11.50    0.70
  -7   4  10   11.10    0.50
  -7   4  10   11.40    0.80
   7   4 -10   10.70    0.60
  -7   4  10   11.10    0.60
  -6  -4  10   25.40    2.00
   6  -4 -10   26.50    1.20
   6  -4 -10   24.00    1.50
   6  -4 -10   25.80    1.70
  -6  -4  10   25.00    1.50
   6   4 -10   27.80    1.20
  -6   4  10   28.10    1.20
   6   4 -10   29.20    1.30
  -6   4  10   27.70    1.30
   6   4 -10   28.50    1.80
   6   4 -10   27.90    1.40
  -6   4  10   29.10    1.10
   6   4 -10   29.30    1.30
  -6   4  10   28.90    1.40
  -6   4  10   29.50    1.20
   6   4 -10   28.30    1.40
  -5  -4  10   -2.60    3.00
  -5  -4  10    1.20    0.40
  -5  -4  10    2.80    1.00
  -5   4  10    4.00    0.30
   5   4 -10    4.30    0.50
  -5   4  10    4.50    0.60
   5   4 -10    6.80    0.90
   5   4 -10    4.30    0.40
   5   4 -10    4.80    1.20
  -5   4  10    3.70    0.40
  -5   4  10    3.60    0.50
   5   4 -10    4.50    0.60
   5   4 -10    5.10    0.70
  -4  -4  10   26.30    1.20
   4  -4 -10   29.30    1.80
   4  -4 -10   24.60    1.50
  -4  -4  10   26.70    1.60
  -4  -4  10   24.50    2.10
  -4  -4  10   27.00    1.30
   4  -4 -10   26.00    1.20
   4  -4 -10   30.90    2.00
  -4  -4  10   26.90    1.60
  -4   4  10   31.60    2.20
   4   4 -10   35.20    2.40
   4   4 -10   29.60    1.50
  -4   4  10   29.00    1.30
   4   4 -10   27.60    1.30
   4   4 -10   30.50    1.40
  -4   4  10   29.50    1.30
  -4   4  10   28.50    1.40
   4   4 -10   29.90    1.50
  -4   4  10   28.60    1.40
  -3  -4  10   74.79    3.20
  -3  -4  10   67.49    3.00
   3  -4 -10   70.19    3.10
  -3  -4  10   82.29    3.00
  -3  -4  10   74.39    2.90
   3  -4 -10   72.69    3.60
   3  -4 -10   77.59    3.10
  -3  -4  10   77.39    5.20
   3   4 -10   87.09    3.30
   3   4 -10   80.99    3.80
   3   4 -10   85.09    3.20
   3   4 -10   85.19    3.20
  -3   4  10   82.89    3.10
  -3   4  10   85.69    3.20
   3   4 -10   84.09    3.30
  -3   4  10   85.39    3.40
   3   4 -10   88.99    4.70
  -3   4  10   85.69    3.30
  -3   4  10   86.39    4.50
  -2  -4  10   31.40    1.50
  -2  -4  10   31.60    1.40
   2  -4 -10   28.80    2.40
  -2  -4  10   30.50    1.70
   2  -4 -10   34.70    1.70
  -2  -4  10   29.30    2.00
   2   4 -10   30.70    1.80
   2   4 -10   36.20    1.60
  -2   4  10   33.60    1.60
   2   4 -10   34.60    2.20
  -2   4  10   33.50    1.50
   2   4 -10   35.50    1.60
  -2   4  10   31.70    2.00
  -2   4  10   40.10    1.60
   2   4 -10   34.60    1.60
  -2   4  10   35.10    1.60
  -2   4  10   36.00    1.50
   2   4 -10   32.80    1.50
  -1  -4  10   17.50    0.90
   1  -4 -10   16.50    1.20
  -1  -4  10   17.20    1.00
   1  -4 -10   16.80    1.10
  -1  -4  10   18.40    1.50
  -1  -4  10   16.90    1.40
  -1  -4  10   15.80    1.90
   1  -4 -10   15.40    1.50
  -1   4  10   19.90    0.90
   1   4 -10   20.10    1.20
   1   4 -10   23.60    1.40
   1   4 -10   21.00    0.90
  -1   4  10   20.00    1.00
   1   4 -10   15.70    2.80
  -1   4  10   18.70    1.10
   1   4 -10   19.40    1.30
  -1   4  10   19.90    1.40
   0  -4  10   13.20    1.60
   0  -4 -10   12.90    1.00
   0  -4 -10   13.40    1.20
   0  -4  10   12.70    0.70
   0  -4  10   11.50    1.00
   0  -4  10   13.50    0.80
   0  -4 -10   13.00    1.00
   0  -4 -10   13.70    1.00
   0   4  10   14.90    0.70
   0   4 -10   11.80    0.80
   0   4 -10   14.50    0.80
   0   4 -10   13.90    1.00
   0   4  10   14.80    0.90
   0   4  10   14.60    0.80
   0   4  10   14.00    0.80
   0   4 -10   14.20    1.00
   0   4 -10   14.60    0.70
   0   4  10   14.50    0.90
  -1  -4 -10    4.70    0.70
   1  -4  10    3.10    1.10
  -1  -4 -10    4.60    0.60
   1  -4  10    4.30    1.00
   1  -4  10    4.50    0.50
   1  -4  10    5.30    1.10
  -1  -4 -10    4.10    0.60
   1  -4  10    4.40    0.40
  -1   4 -10    5.00    0.70
   1   4  10    5.70    0.80
   1   4  10    5.50    0.40
  -1   4 -10    5.20    0.40
   1   4  10    5.00    0.50
  -1   4 -10    4.80    0.60
   1   4  10    5.10    0.50
  -1   4 -10    4.80    0.50
   1   4  10    5.60    0.50
   2  -4  10    0.20    0.10
   2  -4  10    1.30    2.30
  -2  -4 -10    0.30    0.10
  -2   4 -10    1.30    0.40
   2   4  10    2.40    0.80
  -2   4 -10    1.20    0.40
   2   4  10    1.70    0.20
  -3  -4 -10   43.60    1.90
   3  -4  10   42.40    1.70
  -3  -4 -10   40.80    1.70
   3  -4  10   36.40    2.00
  -3  -4 -10   40.00    1.70
   3  -4  10   39.30    2.60
  -3   4 -10   44.20    1.70
   3   4  10   44.10    1.60
  -3   4 -10   42.10    1.50
   3   4  10   40.20    1.90
   7  -5 -10   11.80    0.80
  -7  -5  10   13.60    1.40
   7  -5 -10   13.20    0.80
  -7   5  10   14.90    0.80
  -7   5  10   14.70    0.60
  -7   5  10   14.60    0.70
   7   5 -10   15.00    0.60
   7   5 -10   12.50    0.70
  -6  -5  10    2.70    0.70
  -6  -5  10    3.20    0.50
   6  -5 -10    3.10    0.50
   6  -5 -10    3.00    0.50
  -6   5  10    3.40    0.30
   6   5 -10    3.30    0.30
   6   5 -10    3.00    0.60
  -6   5  10    3.50    0.50
  -6   5  10    3.30    0.40
  -5  -5  10   17.20    1.20
   5  -5 -10   18.60    1.10
  -5  -5  10   18.50    1.40
   5  -5 -10   20.10    1.20
  -5  -5  10   19.10    1.00
  -5   5  10   21.80    1.00
   5   5 -10   20.80    1.10
   5   5 -10   22.60    1.00
  -5   5  10   22.40    0.90
   5   5 -10   22.70    0.90
   4  -5 -10   11.10    0.80
   4  -5 -10   14.00    1.40
  -4  -5  10    8.30    1.30
  -4  -5  10   10.40    1.10
  -4  -5  10   10.40    1.20
  -4  -5  10   11.50    0.80
   4  -5 -10   11.90    0.90
  -4  -5  10   11.50    0.80
   4   5 -10   12.00    0.80
  -4   5  10   13.50    0.80
  -4   5  10   13.80    0.60
  -4   5  10   11.30    0.80
   4   5 -10   15.10    0.90
   4   5 -10   13.70    1.00
   4   5 -10   13.80    0.60
  -4   5  10   11.40    0.70
   3  -5 -10   16.30    1.10
  -3  -5  10   17.40    1.60
  -3  -5  10   15.40    1.40
   3  -5 -10   14.80    1.00
  -3  -5  10   15.20    1.20
   3   5 -10   20.60    1.20
  -3   5  10   17.70    0.70
   3   5 -10   17.00    0.80
   3   5 -10   15.80    0.90
   3   5 -10   16.00    0.90
  -3   5  10   16.20    0.90
   2  -5 -10   18.40    1.20
  -2  -5  10   17.40    1.20
   2  -5 -10   17.80    1.10
  -2  -5  10   18.40    1.50
   2  -5 -10   18.20    1.20
   2   5 -10   21.30    1.30
  -2   5  10   18.60    1.00
   2   5 -10   20.80    1.00
  -2   5  10   19.20    1.00
   2   5 -10   19.10    1.00
   2   5 -10   20.30    0.90
  -2   5  10   18.00    1.00
  -2   5  10   19.90    0.80
  -1  -5  10   17.20    1.50
  -1  -5  10   17.60    1.50
   1  -5 -10   18.90    1.00
   1  -5 -10   21.70    1.30
   1  -5 -10   17.90    1.10
  -1   5  10   19.60    0.80
   1   5 -10   19.90    0.90
   1   5 -10   20.30    0.90
  -1   5  10   20.90    0.90
   1   5 -10   19.60    1.00
   0  -5 -10   15.00    1.00
   0  -5 -10   12.70    0.80
   0  -5 -10   12.00    0.90
   0  -5  10   14.50    1.20
   0  -5 -10   15.50    0.80
   0   5  10   15.70    0.70
   0   5 -10   14.80    0.80
   0   5  10   15.50    0.80
   0   5 -10   16.60    0.70
   0   5 -10   14.50    1.10
  11   0 -11   20.20    1.20
 -11   0  11   20.20    1.00
  11   0 -11   19.10    1.10
 -11   0  11   20.60    1.00
 -10   0  11   21.60    1.10
  10   0 -11   20.10    1.20
  10   0 -11   21.10    1.20
 -10   0  11   21.10    1.40
 -10   0  11   21.30    1.10
  -9   0  11   43.30    2.00
   9   0 -11   43.70    1.90
   9   0 -11   43.30    2.00
  -9   0  11   42.40    2.30
  -9   0  11   46.40    1.90
  -8   0  11   11.20    0.90
  -8   0  11   10.90    1.10
   8   0 -11   11.30    1.00
  -8   0  11   11.00    0.80
   8   0 -11   11.30    0.90
  -7   0  11   87.19    3.50
  -7   0  11   87.69    3.40
  -7   0  11   86.99    3.60
   7   0 -11   84.09    3.60
   7   0 -11   89.99    3.50
  -7   0  11   93.79    4.10
  -6   0  11    8.00    1.00
   6   0 -11   10.60    2.00
   6   0 -11    8.50    1.30
  -5   0  11   21.60    1.30
   5   0 -11   24.20    1.80
  -5   0  11   22.20    1.80
  -5   0  11   25.40    1.90
   5   0 -11   20.20    1.40
  -5   0  11   21.20    1.30
   5   0 -11   20.80    1.30
  -4   0  11  218.78    7.80
  -4   0  11  203.18    7.80
  -4   0  11  205.88    7.80
   4   0 -11  209.18    7.80
   4   0 -11  235.48    9.10
   4   0 -11  212.88    8.00
   4   0 -11  227.68    8.50
  -4   0  11  216.18    8.30
   3   0 -11    0.40    0.30
   3   0 -11    0.70    0.30
   3   0 -11    1.90    0.60
  -3   0  11    2.30    0.60
  -3   0  11    0.80    0.30
  -3   0  11    1.50    0.50
  -3   0  11    0.90    0.30
  -3   0  11    0.90    0.30
  -2   0  11  240.28    8.50
   2   0 -11  239.68    8.50
  -2   0  11  233.38    8.60
  -2   0  11  244.48    9.20
   2   0 -11  247.08    9.30
  -2   0  11  227.58    8.50
   2   0 -11  238.58    8.70
   2   0 -11  217.88   10.20
  -1   0  11   37.40    2.60
   1   0 -11   46.70    2.60
   1   0 -11   42.40    2.70
   1   0 -11   52.19    3.00
  -1   0  11   44.10    2.70
   1   0 -11   43.20    2.70
  -1   0  11   43.60    2.60
  -1   0  11   44.60    2.60
   0   0  11  862.11   30.10
   0   0 -11  883.81   30.10
   0   0  11  908.71   30.00
   0   0  11  874.01   30.70
   0   0  11  909.11   31.20
   0   0 -11  896.61   30.90
   0   0 -11  880.21   30.00
   0   0  11  858.41   30.00
  -1   0 -11   68.79    2.90
  -1   0 -11   67.89    3.50
  -1   0 -11   69.49    3.60
   1   0  11   75.49    4.50
   1   0  11   65.89    2.80
   1   0  11   66.29    3.50
   1   0  11   70.39    2.90
   1   0  11   66.89    3.00
  -1   0 -11   66.19    3.00
   2   0  11   58.89    2.70
   2   0  11   61.29    3.20
  -2   0 -11   60.59    3.10
   2   0  11   59.29    3.40
  -2   0 -11   61.69    2.90
   2   0  11   59.49    2.60
   2   0  11   69.99    2.90
  -2   0 -11   73.79    3.00
  -3   0 -11   26.40    1.90
   3   0  11   25.40    1.30
   3   0  11   23.20    1.40
  -3   0 -11   24.20    1.30
   3   0  11   22.60    1.30
   3   0  11   24.40    1.80
  -3   0 -11   25.70    1.40
  -4   0 -11   23.90    1.10
   4   0  11   22.90    1.10
  -4   0 -11   20.30    1.10
  -4   0 -11   22.70    1.10
   4   0  11   22.10    1.10
   4   0  11   19.10    1.10
 -11  -1  11   96.39    3.70
 -11  -1  11   98.29    3.50
  11  -1 -11   96.79    3.60
 -11  -1  11   99.39    3.50
 -11   1  11   98.39    3.60
  11   1 -11  101.29    3.60
 -11   1  11   96.49    3.60
 -10  -1  11   77.19    2.90
 -10  -1  11   78.59    3.00
  10   1 -11   80.89    3.00
 -10   1  11   77.49    2.90
 -10   1  11   77.49    3.00
 -10   1  11   79.19    3.10
   9  -1 -11    0.40    0.20
  -9  -1  11    1.30    0.40
  -9  -1  11    0.20    0.30
  -9  -1  11    0.30    0.10
  -9   1  11    0.40    0.20
   9   1 -11    0.70    0.30
  -9   1  11    1.30    0.50
  -9   1  11    0.40    0.30
   8  -1 -11   10.10    0.90
  -8  -1  11   10.60    0.80
  -8  -1  11   10.90    0.80
  -8  -1  11    7.60    1.50
  -8   1  11    8.20    1.30
  -8   1  11   13.30    1.20
  -8   1  11   11.50    1.30
  -8   1  11   11.50    0.80
   8   1 -11   11.40    0.90
   8   1 -11   10.40    1.30
  -7  -1  11  111.19    4.30
  -7  -1  11  116.19    4.70
  -7  -1  11  109.79    4.20
   7  -1 -11  104.49    4.30
  -7   1  11  108.49    4.30
  -7   1  11  110.89    4.30
   7   1 -11  116.19    4.80
   7   1 -11  112.89    4.30
  -7   1  11  111.59    4.80
   7   1 -11  112.59    3.90
  -7   1  11  110.39    4.20
   6  -1 -11   45.00    2.20
  -6  -1  11   44.40    2.10
  -6  -1  11   46.80    2.50
   6   1 -11   50.79    3.10
  -6   1  11   42.00    2.10
  -6   1  11   46.10    2.60
   6   1 -11   47.00    1.80
  -6   1  11   45.70    3.00
  -6   1  11   46.10    2.10
   6   1 -11   47.50    2.20
   5  -1 -11    3.10    1.00
  -5  -1  11    3.30    0.70
  -5  -1  11    3.60    0.60
   5  -1 -11    3.50    0.70
  -5  -1  11    2.80    0.80
   5   1 -11    3.90    1.20
   5   1 -11    4.20    1.10
  -5   1  11    3.70    0.60
  -5   1  11    3.00    1.10
   5   1 -11    4.50    0.70
  -5   1  11    3.40    0.50
  -5   1  11    4.20    0.90
   5   1 -11    3.80    0.60
  -4  -1  11    5.80    1.00
   4  -1 -11    5.50    1.10
  -4  -1  11    5.50    0.70
   4  -1 -11    6.00    0.80
  -4  -1  11    6.90    1.50
  -4  -1  11    6.70    0.70
  -4  -1  11    6.20    1.00
   4   1 -11    4.10    1.10
  -4   1  11    5.10    1.00
  -4   1  11    4.80    1.00
   4   1 -11    4.90    0.70
  -4   1  11    5.40    0.40
  -4   1  11    3.60    1.00
   4   1 -11    4.40    1.30
  -4   1  11    4.70    0.80
   4   1 -11    5.40    0.50
   4   1 -11    6.90    1.10
  -4   1  11    4.70    0.70
  -3  -1  11   52.79    2.90
   3  -1 -11   50.69    3.00
  -3  -1  11   50.09    2.50
  -3  -1  11   51.09    2.40
   3  -1 -11   56.89    3.10
  -3  -1  11   51.19    2.30
   3  -1 -11   52.89    2.50
  -3  -1  11   52.59    3.00
   3   1 -11   56.59    3.40
   3   1 -11   53.79    2.40
  -3   1  11   55.39    2.90
  -3   1  11   52.39    2.00
   3   1 -11   52.19    2.60
  -3   1  11   51.19    3.10
  -3   1  11   54.99    2.40
   3   1 -11   52.39    2.90
   3   1 -11   52.69    2.00
  -2  -1  11  141.09    6.10
   2  -1 -11  141.79    5.50
  -2  -1  11  137.59    5.50
   2  -1 -11  145.39    6.00
   2  -1 -11  154.18    6.20
  -2  -1  11  143.39    6.00
  -2  -1  11  138.09    5.50
  -2   1  11  145.29    6.20
   2   1 -11  145.99    5.60
  -2   1  11  145.99    6.00
  -2   1  11  145.39    5.50
  -2   1  11  143.99    5.10
   2   1 -11  146.59    6.10
   2   1 -11  144.99    5.80
   2   1 -11  137.49    5.10
   2   1 -11  144.59    6.30
   2   1 -11  156.18    6.40
   1  -1 -11   53.49    2.80
  -1  -1  11   47.40    2.50
   1  -1 -11   50.79    2.80
   1  -1 -11   52.29    2.90
   1  -1 -11   52.69    3.90
  -1  -1  11   44.00    3.10
  -1  -1  11   48.60    2.40
  -1  -1  11   49.30    2.80
   1   1 -11   46.10    2.40
  -1   1  11   48.20    2.80
   1   1 -11   45.40    2.30
  -1   1  11   51.49    2.50
  -1   1  11   46.80    2.90
   1   1 -11   45.50    2.30
  -1   1  11   51.09    1.90
   1   1 -11   49.60    3.00
   1   1 -11   49.10    3.10
   0  -1  11   79.69    3.80
   0  -1  11   81.59    4.10
   0  -1  11   78.29    3.30
   0  -1 -11   78.39    3.30
   0  -1 -11   81.29    3.80
   0  -1 -11   82.79    4.00
   0  -1  11   77.39    3.30
   0  -1 -11   78.39    3.30
   0   1 -11   84.19    4.10
   0   1  11   82.99    4.00
   0   1  11   80.59    4.00
   0   1 -11   79.09    3.30
   0   1 -11   79.29    3.50
   0   1 -11   82.59    3.40
   0   1  11   84.39    3.40
   0   1  11   83.29    3.00
   0   1 -11   83.49    4.10
  -1  -1 -11   68.89    2.90
   1  -1  11   73.99    4.40
  -1  -1 -11   68.39    3.40
   1  -1  11   71.19    2.90
   1  -1  11   70.69    3.50
  -1  -1 -11   69.99    3.00
   1  -1  11   69.89    3.00
  -1   1 -11   72.39    3.10
  -1   1 -11   69.29    3.00
   1   1  11   71.79    3.00
  -1   1 -11   72.19    3.70
  -1   1 -11   72.29    3.00
   1   1  11   72.49    3.60
   1   1  11   63.79    3.70
   1   1  11   75.09    2.60
  -2  -1 -11   69.29    2.90
  -2  -1 -11   69.39    2.90
  -2  -1 -11   67.39    3.40
   2  -1  11   71.79    2.90
   2  -1  11   73.59    3.50
  -2  -1 -11   67.09    3.10
   2  -1  11   69.99    2.80
   2   1  11   69.99    3.70
   2   1  11   73.99    3.10
  -2   1 -11   75.69    3.00
   2   1  11   71.99    2.60
  -2   1 -11   73.79    3.00
  -2   1 -11   80.79    3.90
  -2   1 -11   73.49    3.10
  -3  -1 -11   12.40    0.80
  -3  -1 -11   12.50    0.90
   3  -1  11   12.10    0.90
  -3  -1 -11   10.20    0.90
  -3  -1 -11   10.30    1.50
  -3  -1 -11   12.70    0.90
   3  -1  11   12.00    1.30
   3  -1  11   11.50    0.80
  -3   1 -11   13.30    0.80
   3   1  11   12.50    0.90
  -3   1 -11   12.20    1.30
  -3   1 -11   16.60    1.10
   4  -1  11    7.10    0.60
  -4  -1 -11    7.80    0.60
   4  -1  11    5.30    0.90
   4  -1  11    6.80    0.50
  -4  -1 -11    7.60    0.50
  -4  -1 -11    6.60    0.60
  -4  -1 -11    6.30    0.60
  -4   1 -11    7.80    0.60
  -4   1 -11    8.10    0.60
   4   1  11    8.20    0.60
  10  -2 -11   18.50    1.20
  10  -2 -11   20.50    1.10
 -10  -2  11   19.80    1.20
 -10  -2  11   20.30    0.90
  10  -2 -11   17.70    1.20
  10   2 -11   19.60    0.80
  10   2 -11   21.90    1.10
 -10   2  11   21.10    1.00
   9  -2 -11   80.29    3.10
  -9  -2  11   79.19    2.90
   9  -2 -11   76.59    3.50
  -9  -2  11   75.89    3.20
   9  -2 -11   73.19    3.30
  -9   2  11   80.99    3.10
   9   2 -11   80.49    2.80
   9   2 -11   83.99    3.20
   9   2 -11   74.69    3.00
   9   2 -11   80.79    3.50
  -8  -2  11  319.37   11.20
   8  -2 -11  289.67   11.20
   8  -2 -11  301.97   11.40
  -8  -2  11  311.07   11.10
  -8  -2  11  326.57   10.80
   8  -2 -11  320.87   10.90
   8   2 -11  331.17   11.20
  -8   2  11  330.47   11.40
   8   2 -11  329.87   11.10
   8   2 -11  337.77   11.50
   8   2 -11  318.37   12.00
  -8   2  11  320.97   12.00
   7  -2 -11   11.50    1.40
  -7  -2  11   11.30    1.10
  -7  -2  11   11.90    0.80
  -7  -2  11   13.90    1.20
   7  -2 -11   11.30    0.90
  -7   2  11   12.60    0.90
   7   2 -11   12.40    0.80
   7   2 -11   12.80    1.30
  -7   2  11   10.70    1.30
  -7   2  11   12.20    0.60
   7   2 -11   12.60    0.70
   7   2 -11   12.60    0.90
  -7   2  11   11.10    1.40
   6  -2 -11    2.10    0.50
  -6  -2  11    2.10    0.40
  -6  -2  11    1.90    0.50
   6  -2 -11    2.40    0.90
  -6  -2  11    1.90    0.80
   6  -2 -11    1.90    1.30
  -6   2  11    2.00    0.30
  -6   2  11    1.80    0.40
  -6   2  11    2.50    0.50
   6   2 -11    2.40    0.60
   6   2 -11    2.20    0.40
   6   2 -11    2.50    0.40
  -6   2  11  -20.60   16.80
  -5  -2  11   49.90    2.20
  -5  -2  11   59.89    3.50
   5  -2 -11   52.29    2.70
   5  -2 -11   48.60    2.30
  -5  -2  11   50.69    2.60
  -5  -2  11   49.40    2.20
  -5  -2  11   43.90    2.40
   5   2 -11   54.99    2.40
  -5   2  11   52.19    1.90
   5   2 -11   50.39    2.80
   5   2 -11   52.59    3.20
  -5   2  11   49.80    2.80
  -5   2  11   53.09    2.30
  -5   2  11   51.19    2.10
  -5   2  11   50.79    2.60
   5   2 -11   52.69    2.20
   5   2 -11   52.69    2.00
   4  -2 -11  166.48    6.50
  -4  -2  11  165.18    6.00
   4  -2 -11  163.98    6.10
  -4  -2  11  161.68    6.40
  -4  -2  11  148.89    6.10
  -4  -2  11  166.88    6.00
  -4   2  11  170.98    6.10
  -4   2  11  164.18    6.90
   4   2 -11  172.38    6.40
   4   2 -11  168.98    7.20
  -4   2  11  172.78    5.90
  -4   2  11  154.28    6.20
  -4   2  11  174.78    6.30
   4   2 -11  173.28    6.00
   4   2 -11  169.78    6.10
  -4   2  11  199.18    7.50
   4   2 -11  177.28    7.20
   3  -2 -11  148.39    5.50
   3  -2 -11  143.69    5.90
  -3  -2  11  148.19    6.30
  -3  -2  11  150.38    5.90
  -3  -2  11  129.09    6.00
  -3  -2  11  144.79    5.40
   3  -2 -11  148.59    5.90
  -3  -2  11  139.59    5.30
   3   2 -11  152.18    5.70
   3   2 -11  189.48    7.30
  -3   2  11  158.28    6.70
   3   2 -11  155.08    5.60
  -3   2  11  153.88    5.70
  -3   2  11  162.18    6.00
  -3   2  11  161.18    5.60
  -3   2  11  155.58    5.80
   3   2 -11  157.48    6.80
   3   2 -11  159.28    6.00
  -3   2  11  157.38    5.70
  -2  -2  11   50.89    3.20
   2  -2 -11   48.70    2.60
  -2  -2  11   52.19    2.70
  -2  -2  11   51.19    2.30
  -2  -2  11   51.99    2.30
   2  -2 -11   50.29    2.30
  -2  -2  11   51.69    2.50
   2  -2 -11   55.19    2.70
  -2   2  11   55.39    2.20
  -2   2  11   60.19    4.40
   2   2 -11   56.49    2.50
  -2   2  11   56.49    2.40
  -2   2  11   55.99    2.30
  -2   2  11   56.29    2.90
   2   2 -11   56.09    3.30
   2   2 -11   54.09    2.30
   2   2 -11   55.59    2.10
   2   2 -11   52.49    3.00
  -2   2  11   56.79    2.50
  -2   2  11   56.59    2.10
   1  -2 -11   81.89    3.60
  -1  -2  11   77.39    3.60
   1  -2 -11   72.39    3.60
   1  -2 -11   77.99    3.10
  -1  -2  11   78.79    4.10
  -1  -2  11   77.49    3.20
   1  -2 -11   76.39    3.20
  -1  -2  11   76.49    3.10
   1   2 -11   80.39    3.00
  -1   2  11   82.49    3.10
  -1   2  11   82.89    3.40
   1   2 -11   82.99    4.00
  -1   2  11   79.89    3.00
  -1   2  11   80.59    3.80
   1   2 -11   80.79    4.20
  -1   2  11   83.19    3.20
   1   2 -11   84.89    3.40
   0  -2  11   77.59    3.30
   0  -2  11   76.99    3.20
   0  -2 -11   84.19    4.10
   0  -2 -11   79.29    3.40
   0  -2  11   77.19    3.80
   0  -2 -11   80.39    3.70
   0  -2 -11   79.29    3.20
   0  -2 -11   80.49    3.20
   0   2  11   83.29    3.30
   0   2 -11   84.49    4.00
   0   2  11   88.69    3.20
   0   2 -11   83.49    3.00
   0   2 -11   77.29    4.20
   0   2  11   83.49    4.00
   0   2 -11   82.99    3.40
   0   2  11   83.59    3.00
   0   2  11   86.89    3.40
  -1  -2 -11    4.70    0.80
   1  -2  11    5.50    0.90
  -1  -2 -11    5.20    1.30
  -1  -2 -11    5.40    0.90
   1  -2  11    6.20    0.90
   1   2  11    4.30    0.70
   1   2  11    4.70    0.70
   1   2  11    4.40    0.50
  -1   2 -11    5.10    1.80
   2  -2  11   38.10    1.70
  -2  -2 -11   35.80    1.90
  -2  -2 -11   38.20    1.60
  -2  -2 -11   38.10    1.80
  -2  -2 -11   37.90    1.70
   2  -2  11   36.60    1.70
  -2  -2 -11   37.10    1.80
   2  -2  11   30.10    2.10
  -2   2 -11   40.30    1.80
   2   2  11   41.60    1.90
  -2   2 -11   37.40    2.40
   2   2  11   42.00    1.50
   2   2  11   39.60    1.70
   3  -2  11    7.60    0.70
  -3  -2 -11    7.40    0.90
  -3  -2 -11    6.90    0.80
   3  -2  11    5.50    0.90
  -3  -2 -11    7.80    0.70
  -3  -2 -11    8.40    0.70
  -3  -2 -11    6.30    0.60
  -3   2 -11    8.10    0.80
  -3   2 -11    6.10    0.70
  -3   2 -11    6.90    0.60
   3   2  11    7.20    0.90
   3   2  11    6.70    0.80
   3   2  11    6.80    0.40
  -4  -2 -11   29.50    1.30
   4  -2  11   25.10    1.90
   4  -2  11   29.00    1.20
   4   2  11   33.60    1.40
  -9  -3  11   12.80    0.60
  -9  -3  11   11.80    1.20
   9  -3 -11   13.40    0.80
  -9  -3  11   12.70    0.60
  -9  -3  11   13.10    1.00
   9  -3 -11   12.80    0.90
   9  -3 -11   13.50    1.00
   9   3 -11   12.90    0.70
   9   3 -11   14.30    0.80
  -9   3  11   14.70    0.80
   9   3 -11   13.70    0.60
  -8  -3  11    4.60    0.50
   8  -3 -11    4.90    0.50
  -8  -3  11    3.80    0.70
   8  -3 -11    4.80    0.70
   8  -3 -11    3.00    0.90
  -8  -3  11    5.00    0.90
  -8  -3  11    5.60    0.50
   8   3 -11    4.70    0.40
   8   3 -11    5.10    0.60
   8   3 -11    4.90    0.50
   8   3 -11    4.00    0.90
   8   3 -11    4.70    0.60
  -8   3  11    5.40    0.50
  -8   3  11    4.80    0.30
  -7  -3  11   63.59    2.50
   7  -3 -11   62.79    2.50
  -7  -3  11   62.39    3.30
  -7  -3  11   63.99    2.40
   7  -3 -11   62.79    3.00
   7  -3 -11   58.89    2.80
  -7  -3  11   64.29    2.80
   7   3 -11   70.69    3.10
   7   3 -11   70.49    2.60
   7   3 -11   69.49    2.80
  -7   3  11   66.59    2.40
   7   3 -11   69.59    2.50
   7   3 -11   61.09    2.80
   7   3 -11   67.19    3.20
  -7   3  11   70.29    2.70
  -7   3  11   66.99    2.70
  -7   3  11   66.09    2.50
   6  -3 -11   33.50    1.90
  -6  -3  11   36.80    1.70
  -6  -3  11   35.60    2.00
   6  -3 -11   43.80    2.60
  -6  -3  11   38.90    2.80
  -6  -3  11   36.70    1.90
   6  -3 -11   37.20    1.80
  -6  -3  11   37.30    1.60
   6   3 -11   39.30    1.80
   6   3 -11   38.60    1.90
  -6   3  11   39.20    2.10
  -6   3  11   38.30    1.60
   6   3 -11   44.00    1.70
  -6   3  11   43.50    1.90
   6   3 -11   36.40    1.80
  -6   3  11   39.10    1.50
   6   3 -11   40.70    2.50
  -6   3  11   37.30    1.70
  -6   3  11   38.40    1.60
   5  -3 -11   24.40    1.80
  -5  -3  11   27.20    1.70
  -5  -3  11   24.30    1.30
  -5  -3  11   24.70    2.10
   5  -3 -11   26.20    1.30
  -5  -3  11   23.70    1.30
   5  -3 -11   26.80    1.80
  -5  -3  11   25.40    1.60
   5   3 -11   28.10    1.30
  -5   3  11   27.70    1.20
   5   3 -11   28.00    1.20
  -5   3  11   28.80    1.40
   5   3 -11   28.80    1.90
   5   3 -11   27.90    1.40
   5   3 -11   27.80    1.50
  -5   3  11   25.30    1.40
  -5   3  11   29.10    1.30
  -5   3  11   28.50    1.10
   5   3 -11   27.30    1.30
  -5   3  11   28.40    2.00
   4  -3 -11   10.30    1.10
  -4  -3  11    9.60    1.00
   4  -3 -11   11.20    1.10
  -4  -3  11   10.90    0.70
   4  -3 -11   10.50    0.80
  -4  -3  11   10.20    1.00
  -4  -3  11   11.20    0.80
  -4  -3  11   10.80    1.30
  -4   3  11   10.10    0.70
   4   3 -11   11.10    0.80
  -4   3  11   10.70    0.80
  -4   3  11   10.60    0.70
  -4   3  11   10.70    0.80
   4   3 -11    9.80    0.70
   4   3 -11   11.10    0.80
  -4   3  11   11.10    0.60
   4   3 -11   11.00    0.90
  -4   3  11   10.10    1.20
   4   3 -11   10.70    0.60
   4   3 -11   10.50    1.30
  -3  -3  11   25.60    1.30
  -3  -3  11   24.40    1.50
   3  -3 -11   24.90    1.80
   3  -3 -11   23.00    1.60
  -3  -3  11   24.20    1.30
  -3  -3  11   23.20    2.10
   3  -3 -11   24.00    1.30
  -3   3  11   26.10    1.20
  -3   3  11   26.40    1.20
   3   3 -11   25.40    1.30
   3   3 -11   26.40    1.40
  -3   3  11   26.10    1.10
  -3   3  11   26.40    1.40
  -3   3  11   24.40    1.80
  -3   3  11   25.90    1.30
   3   3 -11   27.40    1.20
   3   3 -11   25.80    1.90
   3   3 -11   26.90    1.30
   3   3 -11   28.40    1.50
  -2  -3  11  175.78    6.30
  -2  -3  11  168.98    7.50
  -2  -3  11  173.38    6.80
  -2  -3  11  162.48    6.80
  -2  -3  11  175.78    6.50
   2  -3 -11  173.68    6.20
   2  -3 -11  184.28    7.00
   2  -3 -11  173.98    6.30
  -2  -3  11  176.18    6.30
   2   3 -11  185.18    6.70
   2   3 -11  182.28    6.90
  -2   3  11  194.68    6.90
  -2   3  11  191.58    6.80
  -2   3  11  188.48    7.60
   2   3 -11  191.38    7.50
  -2   3  11  188.98    6.70
   2   3 -11  192.68    7.00
  -2   3  11  190.58    6.60
  -2   3  11  196.68    6.70
   2   3 -11  194.08    6.80
   2   3 -11  197.58    6.60
   1  -3 -11   13.20    1.00
   1  -3 -11   12.90    0.90
  -1  -3  11    9.40    1.60
  -1  -3  11   11.50    1.60
   1  -3 -11    8.80    1.40
   1  -3 -11   12.10    0.90
   1  -3 -11   12.40    1.00
  -1   3  11   11.80    0.80
   1   3 -11   14.20    1.90
  -1   3  11   14.10    0.80
  -1   3  11   16.40    1.20
   1   3 -11   13.00    0.90
  -1   3  11   12.20    0.80
   1   3 -11   13.40    0.90
  -1   3  11   12.80    1.60
  -1   3  11   11.60    1.00
   1   3 -11   14.90    1.00
   1   3 -11   12.50    0.90
   0  -3  11  129.59    4.80
   0  -3 -11  129.49    4.70
   0  -3  11  118.09    5.20
   0  -3 -11  130.69    4.60
   0  -3  11  129.89    4.70
   0  -3 -11  125.99    4.90
   0  -3 -11  127.79    4.80
   0  -3 -11  130.09    5.20
   0   3  11  139.79    5.00
   0   3  11  136.69    5.00
   0   3 -11  139.69    4.80
   0   3  11  134.89    5.10
   0   3  11  140.29    5.20
   0   3  11  142.29    4.80
   0   3 -11  138.99    4.90
  -1  -3 -11   27.20    1.20
  -1  -3 -11   26.80    1.60
   1  -3  11   27.50    2.50
   1  -3  11   26.80    1.30
   1  -3  11   26.70    2.00
  -1  -3 -11   27.00    1.40
  -1  -3 -11   26.80    1.20
   1  -3  11   26.40    1.30
  -1  -3 -11   26.50    1.40
  -1   3 -11   30.40    1.50
  -1   3 -11   28.80    1.20
   1   3  11   29.70    1.20
   1   3  11   34.20    1.80
   1   3  11   29.20    1.50
   1   3  11   30.50    1.30
   1   3  11   30.50    1.50
   2  -3  11  108.49    3.80
   2  -3  11  105.79    3.60
  -2  -3 -11   86.99    3.60
  -2  -3 -11   91.49    3.70
  -2  -3 -11   95.59    3.60
  -2  -3 -11   92.69    3.30
   2  -3  11   83.99    4.20
  -2  -3 -11   91.49    3.30
   2  -3  11   90.09    4.20
  -2   3 -11  111.79    4.10
   2   3  11  100.29    3.80
   2   3  11  103.59    3.70
   2   3  11  105.99    3.90
  -3  -3 -11   77.59    2.90
   3  -3  11   77.29    2.80
   3  -3  11   73.09    3.60
   3  -3  11   70.89    3.20
   3   3  11   82.69    3.20
   3   3  11   84.79    2.90
  -3   3 -11   84.19    3.10
  -8  -4  11    3.70    0.50
   8  -4 -11    3.90    0.50
   8  -4 -11    4.60    0.70
  -8  -4  11    4.60    0.70
   8   4 -11    5.10    0.30
   8   4 -11    4.40    0.40
  -8   4  11    4.50    0.30
  -8   4  11    5.00    0.40
   7  -4 -11   28.60    1.40
   7  -4 -11   31.60    1.60
  -7  -4  11   28.00    1.80
  -7  -4  11   29.20    1.50
   7  -4 -11   32.10    1.30
  -7   4  11   35.40    1.30
   7   4 -11   33.30    1.50
   7   4 -11   33.40    1.40
   7   4 -11   35.10    1.30
  -7   4  11   34.00    1.50
  -6  -4  11   60.69    3.40
   6  -4 -11   68.79    2.40
  -6  -4  11   68.89    2.70
   6  -4 -11   66.29    2.70
  -6  -4  11   64.79    2.80
   6  -4 -11   66.49    3.00
  -6   4  11   80.19    3.40
  -6   4  11   89.69    3.40
   6   4 -11   72.39    3.40
  -6   4  11   78.39    2.80
   6   4 -11   72.49    3.00
  -6   4  11   87.19    3.20
   6   4 -11   77.39    3.00
   6   4 -11   77.79    3.00
   6   4 -11   77.09    2.80
   5  -4 -11   78.59    3.20
  -5  -4  11   73.29    3.10
  -5  -4  11   74.69    3.00
   5  -4 -11   71.89    3.00
  -5  -4  11   72.99    3.50
   5  -4 -11   75.09    2.70
   5  -4 -11   75.09    2.70
   5  -4 -11   76.79    3.30
   5   4 -11   87.79    4.20
  -5   4  11   87.09    3.00
   5   4 -11   81.49    3.40
   5   4 -11   88.59    3.20
   5   4 -11   88.59    3.10
  -5   4  11   85.99    3.40
  -5   4  11   85.29    3.30
  -5   4  11   85.29    3.10
   5   4 -11   81.69    3.30
  -4  -4  11   52.19    2.40
   4  -4 -11   53.69    2.50
   4  -4 -11   55.59    2.60
  -4  -4  11   51.79    2.70
  -4  -4  11   54.59    2.30
  -4   4  11   61.49    2.30
   4   4 -11   58.59    2.40
   4   4 -11   62.29    2.20
   4   4 -11   61.09    2.50
   4   4 -11   57.89    2.30
  -4   4  11   58.69    2.30
   4   4 -11   53.69    3.00
  -4   4  11   56.39    2.30
  -4   4  11   61.19    2.20
  -4   4  11   61.39    2.40
   4   4 -11   61.59    2.30
  -3  -4  11    4.90    1.00
   3  -4 -11    5.60    0.80
  -3  -4  11    5.60    1.00
   3  -4 -11    5.50    0.70
   3  -4 -11    4.60    0.90
  -3  -4  11    5.20    0.70
   3   4 -11    7.00    0.60
  -3   4  11    6.30    0.40
  -3   4  11    6.80    0.60
   3   4 -11    7.00    1.70
  -3   4  11    5.80    0.60
   3   4 -11    7.50    0.60
   3   4 -11    6.90    0.50
   3   4 -11    6.00    0.60
  -3   4  11    6.00    0.50
   3   4 -11    6.40    0.50
  -3   4  11    6.30    0.50
  -2  -4  11    9.90    0.90
  -2  -4  11   11.50    1.30
   2  -4 -11   10.30    0.90
   2  -4 -11   11.50    1.00
  -2  -4  11   10.50    1.00
   2  -4 -11   10.40    1.00
  -2   4  11   12.90    0.70
   2   4 -11   12.40    0.70
   2   4 -11   13.00    0.90
  -2   4  11   12.40    1.00
  -2   4  11   12.60    0.60
  -2   4  11   11.80    0.80
   2   4 -11   12.60    1.10
   2   4 -11   12.90    0.60
  -2   4  11   12.00    0.70
  -1  -4  11   12.80    0.70
   1  -4 -11   16.90    1.30
  -1  -4  11   13.60    1.40
   1  -4 -11   13.70    0.90
  -1  -4  11   14.10    0.80
  -1  -4  11   13.10    1.10
   1  -4 -11   13.60    1.10
   1   4 -11   15.30    0.70
  -1   4  11   15.50    1.10
  -1   4  11   16.10    0.70
   1   4 -11   14.80    0.90
  -1   4  11   15.80    0.80
  -1   4  11   15.60    0.90
   1   4 -11   14.90    1.20
   1   4 -11   15.00    1.20
   0  -4 -11   20.90    1.10
   0  -4  11   21.30    0.90
   0  -4  11   20.70    1.60
   0  -4  11   20.70    0.90
   0  -4 -11   20.80    1.30
   0  -4 -11   21.90    1.10
   0   4  11   24.70    1.00
   0   4 -11   23.80    1.00
   0   4 -11   28.00    1.40
   0   4  11   23.30    1.10
   0   4 -11   24.30    1.20
   0   4  11   23.40    1.10
   1  -4  11    5.90    1.10
  -1  -4 -11    6.80    0.60
  -1  -4 -11    7.00    0.70
  -1  -4 -11    7.10    0.60
   1  -4  11    6.60    0.90
  -1   4 -11    8.20    0.60
   1   4  11    8.40    0.40
   1   4  11    7.40    0.60
  -1   4 -11    7.60    0.40
   1   4  11    7.80    0.50
  -4  -5  11   15.20    1.00
   4  -5 -11   14.20    1.00
  -4   5  11   14.60    0.80
   4   5 -11   16.20    0.80
   4   5 -11   16.80    0.70
  -4   5  11   18.00    0.70
   3  -5 -11   42.20    1.90
  -3  -5  11   42.00    2.20
  -3  -5  11   39.80    2.20
   3   5 -11   45.20    2.00
   3   5 -11   42.90    1.90
  -3   5  11   53.59    1.90
   3   5 -11   48.60    1.80
  -3   5  11   53.19    1.90
 -10   0  12    3.60    0.40
  10   0 -12    4.90    0.90
  -9   0  12   40.30    1.70
  -9   0  12   38.40    2.10
   9   0 -12   40.60    1.80
   9   0 -12   44.60    2.00
   8   0 -12    0.40    0.20
  -8   0  12   -0.30    0.30
   8   0 -12    0.60    0.20
  -8   0  12    0.30    0.20
  -8   0  12    0.20    0.20
  -7   0  12    9.70    1.10
   7   0 -12    7.80    0.80
   7   0 -12    8.90    0.80
   6   0 -12    0.20    0.20
  -6   0  12    0.40    0.20
  -6   0  12   -0.30    0.20
   6   0 -12    0.30    0.20
  -6   0  12    0.60    1.10
   6   0 -12   -0.20    0.30
  -6   0  12    0.10    0.20
  -6   0  12    0.00    0.10
   5   0 -12    0.40    0.30
  -5   0  12    0.10    0.10
  -5   0  12    0.00    0.20
   5   0 -12    0.10    0.20
  -5   0  12    0.10    0.20
  -5   0  12    0.10    0.70
  -5   0  12    0.00    0.20
   5   0 -12    0.40    0.30
  -4   0  12  263.97    9.50
  -4   0  12  268.47   10.30
  -4   0  12  266.47    9.50
   4   0 -12  279.27   10.20
   4   0 -12  264.87    9.40
  -4   0  12  257.87   10.10
  -4   0  12  270.27    9.40
   4   0 -12  266.97   10.20
   3   0 -12    8.80    1.30
   3   0 -12    5.70    0.80
  -3   0  12    8.10    1.10
   3   0 -12    6.90    0.80
   3   0 -12   10.50    1.40
  -3   0  12    6.90    0.80
  -3   0  12    7.60    0.70
  -3   0  12    6.60    0.70
  -3   0  12    7.70    1.40
  -2   0  12  734.93   25.30
  -2   0  12  759.42   25.20
  -2   0  12  736.03   25.30
   2   0 -12  713.23   25.30
   2   0 -12  714.03   25.20
  -2   0  12  748.53   26.00
   2   0 -12  759.42   26.10
   2   0 -12  778.82   26.10
  -1   0  12   49.30    2.80
   1   0 -12   48.30    2.30
   1   0 -12   60.49    3.70
  -1   0  12   47.70    2.20
   1   0 -12   47.30    2.30
  -1   0  12   57.99    3.60
   1   0 -12   48.00    2.80
   0   0  12   16.70    1.50
   0   0 -12   19.50    1.20
   0   0  12   17.00    1.10
   0   0 -12   19.00    1.60
   0   0  12   14.90    1.80
   0   0 -12   17.30    1.70
   0   0  12   16.70    1.00
   0   0 -12   18.00    1.10
   0   0  12   16.40    1.10
  -1   0 -12  204.08    7.90
   1   0  12  211.98    7.50
  -1   0 -12  210.98    7.60
   1   0  12  210.58    7.70
  -1   0 -12  204.28    8.10
   1   0  12  205.68    7.60
  -1   0 -12  214.48    7.50
   1   0  12  229.88    8.70
  -2   0 -12    9.60    0.70
   2   0  12    8.60    0.70
   2   0  12    9.70    0.70
   2   0  12   10.40    0.70
  -3   0 -12   52.59    2.00
   3   0  12   50.39    2.20
  -3   0 -12   52.09    2.10
  -3   0 -12   51.09    2.10
   3   0  12   51.49    2.30
   3   0  12   51.79    2.00
  10  -1 -12  133.19    4.60
 -10  -1  12  135.39    4.60
  10  -1 -12  110.19    4.80
 -10  -1  12  135.69    4.80
  10   1 -12  141.69    4.90
 -10   1  12  135.19    4.90
  -9  -1  12   33.10    1.40
   9  -1 -12   27.20    1.50
  -9  -1  12   33.30    1.60
   9  -1 -12   33.50    1.90
  -9   1  12   34.80    1.50
   9   1 -12   35.60    1.60
  -9   1  12   35.10    1.50
   8  -1 -12  100.49    3.90
  -8  -1  12   97.99    4.10
  -8  -1  12  102.59    3.80
  -8   1  12  102.79    3.90
  -8   1  12  107.79    3.90
   8   1 -12  107.39    4.40
  -8   1  12  101.29    4.40
   8   1 -12  106.49    4.00
   7  -1 -12    3.90    1.00
   7  -1 -12    4.00    0.60
  -7  -1  12    5.60    0.70
  -7  -1  12    5.20    0.70
  -7  -1  12    4.50    0.80
   7   1 -12    3.80    0.70
  -7   1  12    4.20    0.90
   7   1 -12    4.10    1.20
  -7   1  12    3.60    0.50
  -7   1  12    2.80    0.50
  -7   1  12    4.10    0.60
   7   1 -12    4.90    1.60
   6  -1 -12   12.20    1.00
  -6  -1  12   12.70    0.80
   6  -1 -12   12.90    1.80
  -6  -1  12   10.10    1.50
  -6  -1  12   12.20    0.90
  -6   1  12   12.80    1.30
   6   1 -12   13.00    0.90
   6   1 -12   13.00    1.10
   6   1 -12   13.40    1.50
  -6   1  12   13.30    2.40
  -6   1  12   14.10    0.90
   6   1 -12   15.10    1.40
  -6   1  12   13.50    0.90
  -6   1  12   13.80    1.00
  -5  -1  12   27.60    1.80
   5  -1 -12   25.20    1.40
   5  -1 -12   25.10    1.80
  -5  -1  12   25.40    1.90
  -5  -1  12   25.90    1.30
  -5  -1  12   27.00    1.40
   5   1 -12   31.50    2.80
  -5   1  12   29.90    2.10
  -5   1  12   27.50    1.40
  -5   1  12   26.60    1.90
   5   1 -12   26.70    1.90
  -5   1  12   24.80    2.00
   5   1 -12   26.40    1.40
  -4  -1  12   75.89    3.20
   4  -1 -12   79.29    3.70
  -4  -1  12   76.79    3.60
  -4  -1  12   80.49    4.00
  -4  -1  12   75.09    3.10
   4  -1 -12   74.29    3.20
  -4   1  12   61.19    4.00
  -4   1  12   76.99    3.70
   4   1 -12   79.29    3.70
   4   1 -12   76.99    3.10
  -4   1  12   78.39    3.20
  -4   1  12   71.89    3.20
  -4   1  12   78.99    3.10
   4   1 -12   74.89    3.80
  -3  -1  12   56.49    3.60
   3  -1 -12   54.09    2.50
   3  -1 -12   57.39    3.00
   3  -1 -12   50.79    2.60
  -3  -1  12   53.09    2.40
  -3  -1  12   54.19    2.40
   3  -1 -12   56.79    3.00
  -3  -1  12   58.39    2.90
   3   1 -12   51.69    2.50
   3   1 -12   52.09    2.40
  -3   1  12   54.49    3.50
  -3   1  12   50.79    3.10
   3   1 -12   56.89    3.00
   3   1 -12   56.99    2.40
  -3   1  12   54.89    2.00
   3   1 -12   55.39    3.10
  -3   1  12   57.59    2.40
   2  -1 -12  133.89    5.50
  -2  -1  12  129.79    5.00
   2  -1 -12  133.79    5.60
  -2  -1  12  131.19    4.90
  -2  -1  12  133.49    5.50
   2  -1 -12  128.39    4.90
   2  -1 -12  126.59    5.00
  -2  -1  12  123.89    5.60
  -2   1  12  143.09    6.10
   2   1 -12  151.68    6.00
   2   1 -12  133.89    6.80
   2   1 -12  137.29    5.90
  -2   1  12  127.29    5.90
  -2   1  12  137.09    4.90
  -2   1  12  137.19    5.20
   2   1 -12  159.58    6.00
   2   1 -12  137.29    5.20
   1  -1 -12   66.89    3.00
   1  -1 -12   68.99    3.00
   1  -1 -12   72.99    3.60
  -1  -1  12   65.49    3.40
  -1  -1  12   79.89    3.60
  -1  -1  12   79.99    3.20
   1  -1 -12   72.29    3.50
  -1   1  12   66.89    3.40
   1   1 -12   66.89    2.90
   1   1 -12   70.19    3.60
   1   1 -12   68.09    3.00
  -1   1  12   62.39    3.50
  -1   1  12   67.79    2.50
  -1   1  12   71.09    2.90
   1   1 -12   72.39    3.60
   1   1 -12   81.39    3.50
   0  -1  12   74.29    3.10
   0  -1  12   69.29    3.80
   0  -1 -12   80.09    4.00
   0  -1 -12   77.29    3.10
   0  -1 -12   74.19    3.10
   0  -1  12   75.29    3.00
   0  -1  12   78.39    3.80
   0   1 -12   75.69    3.00
   0   1 -12   72.49    3.20
   0   1  12   67.89    3.60
   0   1 -12   85.29    4.20
   0   1 -12   72.19    3.10
   0   1  12   89.09    4.70
   0   1  12   76.99    3.10
   1  -1  12   14.70    0.90
   1  -1  12   14.30    1.00
  -1  -1 -12   14.70    0.90
  -1  -1 -12   14.20    1.10
  -1  -1 -12   15.50    1.40
  -1  -1 -12   13.80    0.90
   1  -1  12   16.30    1.80
  -1   1 -12   14.20    0.90
   1   1  12   15.90    1.00
  -1   1 -12   17.20    2.00
  -1   1 -12   13.90    1.00
  -1   1 -12   13.50    1.10
  -2  -1 -12   22.10    1.50
   2  -1  12   23.90    1.20
  -2  -1 -12   18.70    1.40
   2  -1  12   23.20    1.10
  -2  -1 -12   22.00    1.10
  -2   1 -12   19.50    1.20
  -2   1 -12   24.50    1.30
  -2   1 -12   23.90    1.20
   2   1  12   28.70    1.40
   3  -1  12   14.60    0.80
   3  -1  12   12.70    1.00
  -3  -1 -12   15.00    0.80
   3  -1  12   13.40    0.70
  -3  -1 -12   14.90    0.80
  -3  -1 -12   15.00    0.70
   3   1  12   15.80    0.80
  -3   1 -12   11.90    0.70
  -3   1 -12   15.10    0.80
  10  -2 -12  175.68    6.20
 -10  -2  12  166.78    6.20
 -10   2  12  154.98    5.50
   9  -2 -12   25.20    1.50
   9  -2 -12   28.90    1.30
  -9  -2  12   27.40    1.40
  -9  -2  12   25.30    1.70
  -9  -2  12   27.60    1.20
  -9  -2  12   27.70    1.20
   9  -2 -12   25.60    1.50
  -9   2  12   29.50    1.30
   9   2 -12   28.90    1.30
   9   2 -12   29.50    1.10
  -8  -2  12   26.30    1.50
   8  -2 -12   25.90    1.40
  -8  -2  12   27.00    1.30
  -8  -2  12   26.80    1.20
   8  -2 -12   27.00    1.30
   8   2 -12   29.40    1.40
  -8   2  12   28.30    1.30
   8   2 -12   28.30    1.20
   8   2 -12   27.80    2.10
   7  -2 -12   68.89    2.80
  -7  -2  12   67.29    2.90
  -7  -2  12   61.09    3.00
  -7  -2  12   69.39    2.60
   7  -2 -12   67.49    3.50
  -7  -2  12   70.09    2.70
  -7   2  12   75.29    2.90
   7   2 -12   73.19    3.40
   7   2 -12   75.89    3.00
   7   2 -12   74.99    2.60
  -7   2  12   63.79    3.50
   6  -2 -12    9.50    0.80
  -6  -2  12    7.60    0.60
  -6  -2  12    9.10    0.70
  -6  -2  12    7.30    1.10
  -6  -2  12    8.20    0.90
   6  -2 -12    6.30    1.40
   6   2 -12    8.10    2.40
   6   2 -12    9.20    1.40
  -6   2  12    9.10    0.50
   6   2 -12    8.60    0.50
  -6   2  12    8.90    0.70
  -6   2  12   11.80    1.60
   6   2 -12    8.70    0.70
  -5  -2  12    9.70    1.00
   5  -2 -12   12.70    1.20
  -5  -2  12   11.40    1.10
   5  -2 -12   13.80    1.20
   5  -2 -12   13.50    1.70
  -5  -2  12   10.70    1.20
   5   2 -12   11.80    1.80
  -5   2  12   11.70    1.50
  -5   2  12   13.10    0.70
  -5   2  12   14.50    1.50
   5   2 -12   16.50    1.40
   5   2 -12   12.50    1.40
  -5   2  12   15.90    1.20
   5   2 -12   12.00    0.70
   4  -2 -12   37.40    1.80
  -4  -2  12   32.30    2.10
  -4  -2  12   36.50    1.70
  -4  -2  12   35.30    2.00
  -4  -2  12   37.60    1.80
  -4  -2  12   36.20    2.00
   4  -2 -12   37.20    2.10
   4  -2 -12   37.70    2.80
  -4   2  12   38.80    1.60
   4   2 -12   39.20    1.90
  -4   2  12   39.50    2.60
  -4   2  12   40.20    1.80
   4   2 -12   39.40    3.00
   4   2 -12   33.80    1.70
  -4   2  12   40.00    1.60
   4   2 -12   40.20    2.30
  -3  -2  12   54.69    2.70
   3  -2 -12   55.79    2.70
   3  -2 -12   55.89    2.30
  -3  -2  12   58.39    3.30
   3  -2 -12   55.99    2.40
  -3  -2  12   51.09    2.40
   3  -2 -12   54.19    2.60
  -3  -2  12   53.69    2.30
   3   2 -12   59.99    3.90
  -3   2  12   61.49    2.30
   3   2 -12   56.79    2.20
  -3   2  12   54.69    2.30
   3   2 -12   56.39    3.00
   3   2 -12   57.89    2.60
  -3   2  12   57.39    3.50
  -3   2  12   57.19    2.50
  -2  -2  12   34.30    2.10
   2  -2 -12   40.90    2.00
  -2  -2  12   41.60    2.20
  -2   2  12   39.30    2.60
   2   2 -12   41.70    2.80
  -2   2  12   44.80    1.70
  -2   2  12   44.40    1.80
  -2   2  12  -12.10   24.20
   2   2 -12   44.50    2.70
   2   2 -12   45.10    1.60
  -1  -2  12   59.09    3.10
   1  -2 -12   56.79    2.30
   1  -2 -12   56.59    2.40
   1  -2 -12   56.89    2.80
   1  -2 -12   56.29    2.90
  -1  -2  12   55.69    2.30
  -1  -2  12   56.49    2.40
   1  -2 -12   55.09    2.40
  -1   2  12   59.89    2.50
  -1   2  12   60.39    2.20
   1   2 -12   58.49    3.10
  -1   2  12   58.49    2.30
   1   2 -12   59.29    2.50
   0  -2 -12   97.89    3.70
   0  -2 -12   97.39    3.60
   0  -2  12   96.99    3.70
   0  -2 -12   95.99    3.80
   0  -2  12   97.99    3.80
   0  -2 -12   95.29    4.10
   0   2  12  104.89    4.00
   0   2  12   98.09    3.90
   0   2 -12  105.89    4.00
   0   2 -12  109.69    5.50
   0   2  12  103.89    3.60
  -1  -2 -12   90.49    3.50
   1  -2  12   99.79    3.60
  -1  -2 -12   87.79    3.60
  -1  -2 -12   90.19    3.70
  -1  -2 -12   97.29    3.80
   1  -2  12   90.59    3.60
   1   2  12   97.09    3.50
   1   2  12   98.89    3.80
  -1   2 -12  108.29    5.50
  -2  -2 -12    2.90    0.30
  -2  -2 -12    2.30    0.40
   2  -2  12    1.40    0.80
   2  -2  12    2.60    0.70
  -2  -2 -12    1.90    0.30
  -2  -2 -12    2.30    0.30
  -2  -2 -12    2.20    0.60
   2  -2  12    2.40    0.40
   2  -2  12    2.30    0.30
   2   2  12    2.20    0.20
  -2   2 -12    2.80    0.40
   2   2  12    2.90    0.40
  -8  -3  12   13.00    0.70
   8  -3 -12   14.00    0.80
  -8  -3  12   13.40    0.60
   8  -3 -12   14.00    1.00
  -8  -3  12   13.00    1.10
  -8  -3  12   12.80    0.90
  -8   3  12   14.60    0.80
   8   3 -12   12.80    0.80
   8   3 -12   15.30    0.60
   8   3 -12   15.20    0.80
  -7  -3  12   38.40    1.60
  -7  -3  12   38.40    1.60
   7  -3 -12   37.40    2.40
  -7  -3  12   38.10    1.80
  -7  -3  12   41.70    2.90
  -7   3  12   37.60    2.00
   7   3 -12   41.30    1.70
   7   3 -12   39.10    2.10
  -7   3  12   40.00    1.50
   7   3 -12   39.50    1.60
   7   3 -12   46.50    2.30
  -6  -3  12   22.00    1.10
   6  -3 -12   21.60    1.30
   6  -3 -12   21.90    1.10
  -6  -3  12   20.90    1.20
   6  -3 -12   22.00    1.40
  -6  -3  12   21.10    1.60
  -6  -3  12   21.70    1.00
   6   3 -12   21.50    1.60
  -6   3  12   25.00    1.20
  -6   3  12   24.00    1.00
   6   3 -12   25.50    1.30
   6   3 -12   23.90    1.30
   6   3 -12   24.30    1.00
  -6   3  12   23.40    1.10
  -5  -3  12   23.80    1.20
  -5  -3  12   22.70    1.70
   5  -3 -12   23.40    1.50
  -5  -3  12   22.80    1.30
   5  -3 -12   24.50    1.20
  -5  -3  12   24.40    1.10
   5  -3 -12   22.80    1.50
  -5  -3  12   24.10    1.50
  -5   3  12   22.60    1.20
   5   3 -12   21.40    1.30
   5   3 -12   26.10    1.30
   5   3 -12   27.60    2.00
  -5   3  12   25.20    1.10
   5   3 -12   25.90    1.00
   5   3 -12   25.40    1.10
  -5   3  12   26.00    1.30
  -5   3  12   25.20    1.00
   4  -3 -12   80.79    3.00
  -4  -3  12   76.09    3.20
  -4  -3  12   74.59    3.70
  -4  -3  12   70.89    3.60
  -4  -3  12   78.49    3.00
   4  -3 -12   80.49    3.00
   4  -3 -12   77.19    3.40
   4  -3 -12   81.59    3.50
  -4  -3  12   82.99    3.00
  -4   3  12   86.69    3.20
   4   3 -12   88.19    3.10
  -4   3  12   88.59    3.40
  -4   3  12   87.19    3.50
  -4   3  12   86.59    3.10
   4   3 -12   87.19    3.60
   4   3 -12   91.19    3.50
   4   3 -12   87.39    3.20
  -3  -3  12   24.10    1.50
   3  -3 -12   25.60    1.50
  -3  -3  12   24.90    1.90
   3  -3 -12   26.80    1.20
   3  -3 -12   26.10    1.20
  -3  -3  12   23.20    1.60
  -3  -3  12   24.80    1.20
   3  -3 -12   26.50    1.60
  -3  -3  12   25.70    1.20
   3   3 -12   29.40    1.40
  -3   3  12   28.00    1.10
   3   3 -12   28.40    1.10
  -3   3  12   26.60    1.20
  -3   3  12   28.50    1.40
   3   3 -12   30.00    2.10
   3   3 -12   27.30    1.20
   3   3 -12   26.30    1.40
  -3   3  12   26.50    1.40
   2  -3 -12   19.60    1.00
  -2  -3  12   20.10    1.70
   2  -3 -12   19.60    1.20
   2  -3 -12   18.40    1.30
  -2  -3  12   18.60    1.00
   2  -3 -12   19.30    1.00
  -2  -3  12   18.80    1.00
  -2  -3  12   15.80    1.30
   2  -3 -12   19.20    1.40
   2   3 -12   21.90    1.20
   2   3 -12   20.00    0.90
  -2   3  12   21.40    1.10
   2   3 -12   20.80    1.70
   2   3 -12   22.00    1.20
  -2   3  12   20.00    1.00
  -2   3  12   22.30    1.30
  -2   3  12   20.90    0.90
  -1  -3  12    0.10    0.10
   1  -3 -12    0.30    0.10
  -1  -3  12    0.20    0.10
   1   3 -12    0.20    0.20
  -1   3  12    0.20    0.20
  -1   3  12    0.20    1.00
   1   3 -12   -0.20    0.90
   0  -3 -12    7.80    0.80
   0  -3 -12    8.30    0.50
   0  -3 -12    8.00    0.60
   0  -3 -12    8.30    0.70
   0  -3  12    7.80    1.10
   0  -3 -12    8.20    0.50
   0  -3  12    8.10    0.60
   0  -3  12    8.00    0.60
   0   3  12    9.60    0.50
   0   3  12    8.90    0.80
   0   3 -12    9.80    0.70
   0   3  12    9.60    0.70
   0   3 -12    9.20    0.50
  -1  -3 -12   30.10    1.60
  -1  -3 -12   33.70    1.60
   1  -3  12   31.30    1.30
   1  -3  12   31.40    1.80
   1  -3  12   31.10    1.30
  -1  -3 -12   31.30    1.40
   1   3  12   36.60    1.50
   1   3  12   35.40    1.30
  -1   3 -12   35.50    1.50
  -6  -4  12   21.40    1.20
   6  -4 -12   24.70    1.30
  -6  -4  12   24.50    1.50
   6   4 -12   27.70    1.20
  -6   4  12   29.00    1.10
   6   4 -12   28.70    1.50
   6   4 -12   29.30    1.10
  -6   4  12   27.70    1.30
   5  -4 -12   37.10    1.90
   5  -4 -12   40.20    1.80
  -5  -4  12   37.50    1.90
   5   4 -12   44.90    1.60
  -5   4  12   43.10    1.70
  -5   4  12   42.70    1.70
   5   4 -12   43.50    1.80
   5   4 -12   40.90    1.70
  -5   4  12   44.00    1.60
  -4  -4  12    7.80    1.20
   4  -4 -12    8.20    0.70
   4  -4 -12    8.70    0.80
  -4  -4  12    7.80    0.90
  -4   4  12    9.50    0.60
   4   4 -12    9.50    0.60
  -4   4  12    9.10    0.50
   4   4 -12    9.80    0.50
  -4   4  12    9.80    0.50
   4   4 -12   10.30    0.70
   3  -4 -12   18.00    1.00
   3  -4 -12   15.60    1.00
  -3  -4  12   17.40    1.30
   3  -4 -12   17.50    1.10
   3   4 -12   18.40    0.90
  -3   4  12   20.10    0.80
   3   4 -12   19.00    0.80
  -3   4  12   18.70    0.90
  -3   4  12   17.40    0.90
   3   4 -12   19.20    1.00
   2  -4 -12   83.69    3.40
  -2  -4  12   82.79    3.70
   2  -4 -12   99.49    3.60
   2  -4 -12   83.99    3.40
   2   4 -12   92.99    3.20
  -2   4  12   98.49    3.30
   2   4 -12   94.59    3.40
  -2   4  12   94.69    3.60
  -2   4  12   86.99    3.20
   2   4 -12   80.39    3.30
  -1  -4  12   29.40    1.80
   1  -4 -12   33.40    1.50
   1  -4 -12   29.90    1.50
  -1   4  12   30.90    1.30
   1   4 -12   33.50    1.20
   1   4 -12   36.30    1.60
  -1   4  12   31.40    1.30
  -1   4  12   33.90    1.20
  -9   0  13   10.10    0.60
  -9   0  13   10.10    0.60
   9   0 -13    9.20    0.70
   8   0 -13   17.90    1.00
  -8   0  13   18.60    1.00
   8   0 -13   18.60    0.90
  -8   0  13   17.90    0.90
  -7   0  13   26.50    1.60
  -7   0  13   27.30    1.30
   7   0 -13   27.30    1.30
   7   0 -13   25.60    1.80
  -7   0  13   25.80    1.30
   7   0 -13   20.50    1.70
   6   0 -13   36.50    2.60
  -6   0  13   37.50    2.10
   6   0 -13   35.90    2.20
   6   0 -13   37.90    1.80
  -6   0  13   38.00    1.80
  -6   0  13   38.00    1.70
   6   0 -13   39.20    1.70
   5   0 -13   34.90    2.70
   5   0 -13   29.40    2.10
  -5   0  13   34.80    1.50
   5   0 -13   32.40    1.50
   5   0 -13   34.60    1.70
  -5   0  13   33.50    1.60
  -5   0  13   31.20    2.10
  -5   0  13   33.20    1.60
   4   0 -13  106.89    5.00
   4   0 -13   90.99    3.70
  -4   0  13   89.89    3.60
   4   0 -13   91.69    4.20
   4   0 -13   91.89    3.70
  -4   0  13   90.29    3.70
  -4   0  13  109.79    4.80
  -4   0  13   92.39    3.60
   3   0 -13    0.20    0.20
   3   0 -13   -0.30    0.20
  -3   0  13    0.60    0.20
   3   0 -13    0.40    0.20
  -3   0  13    0.10    0.10
  -3   0  13    0.10    0.20
  -3   0  13    0.30    0.20
   3   0 -13    0.20    0.30
   2   0 -13   26.70    1.30
   2   0 -13   26.60    1.40
  -2   0  13   22.90    1.70
  -2   0  13   22.90    1.30
   2   0 -13   24.60    1.80
  -2   0  13   22.50    1.20
   2   0 -13   20.40    1.80
  -2   0  13   23.60    1.30
  -1   0  13  231.68    8.90
  -1   0  13  254.07    8.90
  -1   0  13  237.58    8.40
   1   0 -13  231.78    9.00
  -1   0  13  245.68    8.50
   1   0 -13  241.48    8.40
   1   0 -13  215.08    8.90
   1   0 -13  238.48    8.40
   0   0 -13   12.90    0.90
   0   0  13   14.20    0.90
   0   0  13   13.30    0.80
   0   0 -13   13.50    0.80
   0   0  13   13.40    0.80
   0   0 -13   12.50    0.90
  -1   0 -13   34.90    1.50
   1   0  13   35.90    1.70
  -1   0 -13   30.20    1.50
  -1   0 -13   34.30    1.50
   1   0  13   34.60    1.40
   1   0  13   36.70    1.70
  -9  -1  13   63.99    2.60
  -9  -1  13   67.79    2.50
  -9  -1  13   67.39    2.50
   9  -1 -13   66.99    2.60
  -9   1  13   63.59    2.60
   9   1 -13   65.79    2.50
  -8  -1  13    9.20    0.70
  -8  -1  13    9.60    0.60
  -8  -1  13    9.70    0.80
   8  -1 -13   10.10    0.70
  -8   1  13   10.40    0.60
   8   1 -13   11.30    0.70
  -8   1  13   11.30    0.80
  -8   1  13    8.20    0.80
  -7  -1  13    1.40    0.40
   7  -1 -13    0.30    0.20
  -7  -1  13    1.60    0.60
   7  -1 -13    0.00    0.30
   7   1 -13    1.60    0.40
   7   1 -13    3.60    1.20
  -6  -1  13   15.90    0.90
   6  -1 -13   14.80    1.00
  -6  -1  13   11.90    1.00
   6  -1 -13   13.70    1.70
  -6  -1  13   11.20    1.40
  -6  -1  13   15.80    0.90
   6   1 -13   14.50    1.10
   6   1 -13   13.30    1.50
   6   1 -13   13.80    1.40
  -6   1  13   13.10    0.90
   6   1 -13   15.40    0.90
  -6   1  13   15.60    1.00
  -6   1  13   11.80    1.30
  -6   1  13   15.10    0.90
   5  -1 -13    9.40    1.00
   5  -1 -13    8.50    0.80
  -5  -1  13    9.30    1.00
  -5  -1  13    8.90    0.70
  -5  -1  13    9.90    0.70
   5   1 -13   10.90    0.80
   5   1 -13   10.20    1.50
  -5   1  13   13.00    1.10
  -5   1  13   13.30    1.20
   5   1 -13    8.70    1.40
  -5   1  13   10.40    0.80
  -4  -1  13  141.29    5.70
  -4  -1  13  139.99    5.20
   4  -1 -13  131.79    5.40
   4  -1 -13  146.79    5.30
   4  -1 -13  143.79    5.70
   4  -1 -13  142.69    6.20
  -4  -1  13  146.99    5.30
   4  -1 -13  143.59    5.20
   4   1 -13  150.48    5.70
   4   1 -13  162.88    6.10
  -4   1  13  166.18    6.10
   4   1 -13  138.79    6.40
   4   1 -13  148.69    6.20
   4   1 -13  180.38    6.40
  -4   1  13  152.58    6.90
  -4   1  13  152.78    5.70
  -3  -1  13   93.99    4.10
   3  -1 -13   97.09    4.30
   3  -1 -13   95.59    4.10
  -3  -1  13   94.29    3.70
   3  -1 -13   93.39    3.70
  -3  -1  13   95.59    3.60
   3  -1 -13   95.69    3.60
  -3   1  13  103.39    4.00
   3   1 -13  112.09    5.30
  -3   1  13  103.89    4.80
   3   1 -13  115.69    4.60
   3   1 -13   99.09    4.50
  -3   1  13  102.79    4.30
   3   1 -13  107.19    4.30
   3   1 -13  101.69    4.00
   2  -1 -13  145.09    5.30
  -2  -1  13  142.49    5.30
  -2  -1  13  140.79    5.30
   2  -1 -13  142.79    5.40
  -2  -1  13  158.08    6.50
   2   1 -13  151.28    5.40
   2   1 -13  133.19    6.00
   2   1 -13  144.39    6.70
  -2   1  13  161.58    6.60
   2   1 -13  140.99    6.40
   2   1 -13  165.38    6.40
  -2   1  13  151.58    5.40
  -1  -1  13   36.80    1.80
  -1  -1  13   33.20    2.20
  -1  -1  13   37.40    1.70
   1  -1 -13   38.80    1.70
   1  -1 -13   38.10    2.00
   1  -1 -13   38.40    1.70
   1   1 -13   38.30    1.80
  -1   1  13   38.00    1.70
   1   1 -13   35.70    1.80
   1   1 -13   37.70    2.20
   1   1 -13   39.00    1.70
   0  -1 -13   22.00    1.20
   0  -1  13   23.00    1.20
   0  -1 -13   20.60    1.30
   0  -1 -13   20.70    1.10
   0  -1  13   21.40    1.10
   0  -1 -13   23.00    1.20
   0   1  13   23.90    1.10
   0   1 -13   23.70    2.00
   0   1 -13   21.20    1.10
   0   1 -13   21.90    1.10
   0   1 -13   22.40    1.20
  -1  -1 -13   12.30    0.90
  -1  -1 -13   14.20    0.80
   1  -1  13   14.70    0.90
  -1  -1 -13   13.00    0.80
   1  -1  13   13.70    0.80
  -1  -1 -13   13.00    0.70
  -1   1 -13   13.50    0.70
  -1   1 -13   13.10    0.80
   1   1  13   14.00    0.70
  -8  -2  13    2.90    0.70
   8  -2 -13    4.00    0.50
   8  -2 -13    3.70    0.50
  -8  -2  13    3.30    0.70
  -8  -2  13    3.30    0.30
  -8  -2  13    3.30    0.40
   8   2 -13    3.80    0.40
  -8   2  13    3.80    0.40
  -7  -2  13   15.60    1.00
  -7  -2  13   15.60    1.30
  -7  -2  13   17.70    0.80
   7  -2 -13   16.10    1.10
  -7  -2  13   16.90    0.90
   7  -2 -13   16.40    0.90
  -7   2  13   18.20    0.90
   7   2 -13   18.70    1.00
  -6  -2  13   25.20    1.50
   6  -2 -13   28.60    1.40
   6  -2 -13   30.20    2.00
  -6  -2  13   28.30    1.30
   6  -2 -13   28.30    1.50
  -6  -2  13   28.40    1.30
  -6  -2  13   25.80    1.70
   6   2 -13   29.60    1.40
  -6   2  13   29.50    1.40
   6   2 -13   31.00    2.00
   5  -2 -13    6.00    0.60
   5  -2 -13    5.60    0.90
  -5  -2  13    5.40    0.50
  -5  -2  13    6.00    0.50
   5  -2 -13    5.30    0.80
  -5  -2  13    5.00    0.90
   5   2 -13    5.10    1.00
   5   2 -13    6.00    0.60
  -5   2  13    5.90    0.60
  -4  -2  13   38.20    1.70
   4  -2 -13   36.30    1.60
   4  -2 -13   36.40    2.10
  -4  -2  13   37.70    1.60
   4  -2 -13   36.60    2.00
  -4  -2  13   33.50    2.20
   4  -2 -13   36.60    1.60
  -4   2  13   41.00    1.80
   4   2 -13   40.00    2.20
   4   2 -13   40.50    1.80
  -4   2  13   40.10    1.50
   3  -2 -13   38.70    1.60
  -3  -2  13   36.30    1.70
   3  -2 -13   35.50    1.70
   3  -2 -13   37.80    1.70
  -3  -2  13   37.20    1.60
  -3  -2  13   36.90    2.70
   3  -2 -13   37.50    2.00
  -3   2  13   41.70    1.80
   3   2 -13   41.30    1.80
  -3   2  13   38.60    1.40
   3   2 -13   37.20    2.30
   2  -2 -13   11.70    0.80
   2  -2 -13   12.10    0.70
  -2  -2  13   10.40    0.70
  -2  -2  13   11.40    1.30
   2  -2 -13   10.70    1.00
  -2  -2  13   10.80    0.70
  -2   2  13   11.20    0.50
   2   2 -13   12.00    1.50
  -2   2  13   13.10    0.80
   2   2 -13   13.10    0.90
   1  -2 -13   30.80    1.60
   1  -2 -13   31.70    1.40
  -1  -2  13   31.20    1.40
  -1  -2  13   29.80    1.90
   1  -2 -13   28.50    1.50
  -1  -2  13   32.40    1.40
   1  -2 -13   32.40    1.40
   1   2 -13   33.70    1.50
  -1   2  13   32.30    1.30
  -1   2  13   32.50    1.50
   0  -2  13    0.20    0.10
   0  -2 -13    0.20    0.10
   0  -2  13    0.20    0.10
   0  -2  13    1.60    1.70
   0  -2 -13    0.20    0.10
   0  -2 -13    0.10    0.10
   0   2  13    0.50    0.20
   0   2 -13    0.30    0.20
  -6  -3  13    3.60    0.30
   6  -3 -13    3.80    0.40
  -6  -3  13    3.00    0.40
   6  -3 -13    2.10    0.70
   6  -3 -13    3.50    0.30
  -6  -3  13    3.30    0.70
   6  -3 -13    3.10    0.50
   6   3 -13    3.90    0.30
  -6   3  13    3.80    0.40
   6   3 -13    3.80    0.40
   5  -3 -13   38.40    1.80
  -5  -3  13   40.10    1.50
  -5  -3  13   40.00    1.60
  -5  -3  13   39.10    2.00
   5  -3 -13   38.50    1.90
   5  -3 -13   41.50    1.60
   5  -3 -13   40.40    1.60
   5   3 -13   45.00    1.80
   5   3 -13   42.50    1.60
  -5   3  13   44.90    1.80
  -5   3  13   42.00    1.60
   4  -3 -13   74.29    3.00
  -4  -3  13   73.09    2.70
   4  -3 -13   70.19    2.90
   4  -3 -13   73.79    2.60
   4  -3 -13   69.89    2.90
   4  -3 -13   72.49    2.70
  -4  -3  13   68.79    3.20
  -4  -3  13   73.19    2.60
   4   3 -13   81.99    3.00
  -4   3  13   81.49    3.00
  -4   3  13   77.79    2.70
   4   3 -13   76.49    2.80
  -3  -3  13   26.90    1.10
   3  -3 -13   25.80    1.20
  -3  -3  13   24.50    1.60
   3  -3 -13   25.90    1.40
   3  -3 -13   26.10    1.10
   3  -3 -13   24.40    1.40
   3  -3 -13   26.80    1.10
  -3  -3  13   27.40    1.20
   3   3 -13   28.80    1.10
   3   3 -13   29.00    1.30
  -3   3  13   28.90    1.10
  -3   3  13   30.20    1.30
   2  -3 -13   79.39    3.20
   2  -3 -13   78.39    2.90
  -2  -3  13   78.69    2.90
  -2  -3  13   78.49    3.50
  -2  -3  13   80.89    2.90
   2  -3 -13   78.69    3.00
  -2   3  13   89.39    3.40
   2   3 -13   89.89    3.40
  -2   3  13   96.79    3.20
   7   0 -14   20.50    1.10
  -7   0  14   22.40    1.20
  -7   0  14   24.80    1.20
   7   0 -14   19.50    1.10
  -6   0  14   12.50    0.80
   6   0 -14   13.50    0.80
  -6   0  14   13.90    0.80
   6   0 -14   13.40    0.80
   5   0 -14   20.80    1.40
  -5   0  14   23.20    1.10
  -5   0  14   24.80    1.20
   5   0 -14   23.70    1.10
   5   0 -14   23.20    1.20
  -4   0  14    6.80    0.60
   4   0 -14    7.30    0.60
   4   0 -14    8.00    0.60
  -4   0  14    5.70    0.50
  -3   0  14   31.40    1.40
   3   0 -14   32.60    1.40
   3   0 -14   32.70    1.50
  -3   0  14   31.20    1.40
  -2   0  14    0.30    0.20
   2   0 -14    0.20    0.10
   2   0 -14    0.30    0.10
  -2   0  14    0.40    0.10
  -1   0  14    0.00    0.10
  -1   0  14    0.20    0.10
   1   0 -14    0.20    0.20
   1   0 -14    0.10    0.10
   7  -1 -14   13.60    0.90
   7  -1 -14   16.90    0.90
  -7  -1  14   15.80    0.80
  -7  -1  14   15.90    0.80
   7  -1 -14   14.80    1.10
  -7  -1  14   13.10    1.10
  -7   1  14   16.40    1.20
  -7   1  14   14.70    0.90
   7   1 -14   16.90    0.80
  -7   1  14   17.80    1.10
  -6  -1  14   55.59    2.10
  -6  -1  14   57.49    2.20
   6  -1 -14   58.69    2.20
   6  -1 -14   56.99    2.20
   6  -1 -14   47.10    2.40
   6   1 -14   57.49    2.30
  -6   1  14   53.99    2.30
  -6   1  14   53.39    2.30
   6   1 -14   58.39    2.50
   6   1 -14   61.79    2.70
   5  -1 -14   44.10    2.20
   5  -1 -14   51.49    2.10
  -5  -1  14   53.59    2.10
  -5  -1  14   53.49    2.00
   5  -1 -14   51.59    2.00
   5   1 -14   60.59    2.70
   5   1 -14   56.29    2.20
  -5   1  14   58.79    2.50
  -5   1  14   55.19    2.20
  -5   1  14   58.09    2.40
  -4  -1  14   49.90    2.00
   4  -1 -14   49.90    2.00
   4  -1 -14   50.99    2.10
  -4  -1  14   49.40    2.00
  -4  -1  14   49.50    2.90
  -4   1  14   49.50    2.30
  -4   1  14   50.49    1.90
   4   1 -14   47.90    2.00
   4   1 -14   47.30    2.00
   4   1 -14   50.09    2.00
   3  -1 -14  120.49    4.60
  -3  -1  14  121.69    4.40
   3  -1 -14  119.49    4.30
   3  -1 -14  118.99    4.40
  -3  -1  14  118.69    4.30
  -3   1  14  123.49    4.40
   3   1 -14  119.89    4.50
   3   1 -14  131.29    4.60
   3   1 -14  115.69    4.40
   2  -1 -14    2.50    0.50
  -2  -1  14    2.00    0.30
  -2  -1  14    2.00    0.40
   2  -1 -14    2.60    0.40
   2  -1 -14    2.70    0.40
  -2   1  14    2.20    0.40
  -5  -2  14   91.49    3.40
   5  -2 -14   96.59    3.40
   5  -2 -14   90.29    3.80
  -5  -2  14   91.79    3.30
   5  -2 -14   93.59    3.40
   5  -2 -14   96.69    4.00
   5   2 -14  100.49    3.80
  -5   2  14  101.49    3.70
   4  -2 -14  239.48    8.00
  -4  -2  14  238.08    8.00
   4  -2 -14  233.38    8.30
   4  -2 -14  234.48    8.00
  -4  -2  14  237.08    8.00
  -4  -2  14  211.68    8.40
   4   2 -14  244.98    8.60
  -4   2  14  250.57    8.50
   3  -2 -14   14.80    0.80
   3  -2 -14   13.60    0.90
  -3  -2  14   13.00    0.70
  -3  -2  14   15.30    1.20
  -3  -2  14   14.00    0.80
   3  -2 -14   13.90    0.80
   3  -2 -14   13.80    0.90
   3   2 -14   14.50    0.80
  -3   2  14   15.60    0.90
   0   0   0    0.00    0.00

_computing_structure_solution     'SHELXT 2018/2 (Sheldrick, 2018)'
;
_shelx_hkl_checksum              44819
_olex2_submission_special_instructions 'No special instructions were received'
loop_
_space_group_symop_operation_xyz
'x, y, z'
'-x, y+1/2, -z'
loop_
_atom_site_label
_atom_site_type_symbol
_atom_site_fract_x
_atom_site_fract_y
_atom_site_fract_z
_atom_site_U_iso_or_equiv
_atom_site_adp_type
_atom_site_occupancy
_atom_site_site_symmetry_order
_atom_site_calc_flag
_atom_site_refinement_flags_posn
_atom_site_refinement_flags_adp
_atom_site_refinement_flags_occupancy
_atom_site_disorder_assembly
_atom_site_disorder_group
O5 O 0.45483(12) 0.3202(2) 0.73772(11) 0.0203(3) Uani 1 1 d . . . . .
O4 O 0.38969(13) 0.0514(2) 0.55775(12) 0.0231(3) Uani 1 1 d . . . . .
O6 O 0.36229(13) 0.0466(3) 0.80400(12) 0.0253(3) Uani 1 1 d . . . . .
O1 O 0.06774(14) 0.8123(3) 0.26255(12) 0.0266(3) Uani 1 1 d . . . . .
O2 O -0.06869(14) 0.8123(3) 0.07687(12) 0.0276(3) Uani 1 1 d . . . . .
O3 O 0.03158(19) 1.1164(3) 0.15698(14) 0.0386(4) Uani 1 1 d . . . . .
C3 C 0.30569(19) 0.2186(3) 0.54626(17) 0.0192(4) Uani 1 1 d . . . . .
C4 C 0.33724(18) 0.3575(3) 0.64380(16) 0.0196(4) Uani 1 1 d . . . . .
C1 C 0.11796(18) 0.4421(3) 0.44639(17) 0.0198(4) Uani 1 1 d . . . . .
C2 C 0.19525(19) 0.2620(3) 0.44805(17) 0.0200(4) Uani 1 1 d . . . . .
H2 H 0.172152 0.168592 0.381627 0.024 Uiso 1 1 calc R U . . .
C12 C 0.45926(19) 0.1414(3) 0.80545(16) 0.0197(4) Uani 1 1 d . . . . .
C9 C 0.0116(2) 0.9300(4) 0.16504(18) 0.0238(4) Uani 1 1 d . . . . .
C7 C -0.00125(19) 0.4875(3) 0.33745(17) 0.0225(4) Uani 1 1 d . . . . .
H7A H -0.049108 0.351786 0.309389 0.027 Uiso 1 1 calc R U . . .
H7B H -0.061084 0.585443 0.359496 0.027 Uiso 1 1 calc R U . . .
C10 C -0.0789(2) 0.5985(4) 0.11969(17) 0.0243(4) Uani 1 1 d . . . . .
H10A H -0.069337 0.488696 0.063698 0.029 Uiso 1 1 calc R U . . .
H10B H -0.164418 0.577865 0.131379 0.029 Uiso 1 1 calc R U . . .
C13 C 0.60017(19) 0.0771(3) 0.87681(17) 0.0223(4) Uani 1 1 d . . . . .
C8 C 0.03450(18) 0.5869(3) 0.23733(17) 0.0200(4) Uani 1 1 d . . . . .
H8 H 0.110399 0.508654 0.226806 0.024 Uiso 1 1 calc R U . . .
C11 C 0.3723(2) -0.0764(4) 0.45439(19) 0.0262(4) Uani 1 1 d . . . . .
H11A H 0.377041 0.015362 0.389760 0.039 Uiso 1 1 calc R U . . .
H11B H 0.286230 -0.146866 0.430659 0.039 Uiso 1 1 calc R U . . .
H11C H 0.441592 -0.185196 0.472043 0.039 Uiso 1 1 calc R U . . .
C6 C 0.1523(2) 0.5785(4) 0.54321(17) 0.0242(4) Uani 1 1 d . . . . .
H6 H 0.100292 0.701701 0.542003 0.029 Uiso 1 1 calc R U . . .
C5 C 0.2631(2) 0.5362(4) 0.64276(17) 0.0240(4) Uani 1 1 d . . . . .
H5 H 0.286616 0.630191 0.708926 0.029 Uiso 1 1 calc R U . . .
C16 C 0.6991(2) 0.2566(4) 0.8895(2) 0.0310(5) Uani 1 1 d . . . . .
H16A H 0.700282 0.297050 0.810993 0.047 Uiso 1 1 calc R U . . .
H16B H 0.786709 0.207469 0.938695 0.047 Uiso 1 1 calc R U . . .
H16C H 0.673981 0.380807 0.926904 0.047 Uiso 1 1 calc R U . . .
C14 C 0.6316(2) -0.1116(4) 0.8091(2) 0.0377(6) Uani 1 1 d . . . . .
H14A H 0.568018 -0.227015 0.802198 0.057 Uiso 1 1 calc R U . . .
H14B H 0.720487 -0.164188 0.852084 0.057 Uiso 1 1 calc R U . . .
H14C H 0.626446 -0.064252 0.729842 0.057 Uiso 1 1 calc R U . . .
C15 C 0.6059(3) 0.0040(6) 1.0002(2) 0.0472(8) Uani 1 1 d . . . . .
H15A H 0.592408 0.127499 1.045157 0.071 Uiso 1 1 calc R U . . .
H15B H 0.692023 -0.059950 1.041926 0.071 Uiso 1 1 calc R U . . .
H15C H 0.536903 -0.102459 0.992622 0.071 Uiso 1 1 calc R U . . .
loop_
_atom_site_aniso_label
_atom_site_aniso_U_11
_atom_site_aniso_U_22
_atom_site_aniso_U_33
_atom_site_aniso_U_23
_atom_site_aniso_U_13
_atom_site_aniso_U_12
O5 0.0202(6) 0.0198(7) 0.0175(6) 0.0009(6) 0.0018(5) -0.0015(6)
O4 0.0236(6) 0.0216(8) 0.0208(7) -0.0037(6) 0.0034(5) 0.0040(6)
O6 0.0231(7) 0.0294(8) 0.0238(7) 0.0038(6) 0.0082(5) -0.0020(6)
O1 0.0329(7) 0.0198(8) 0.0201(6) 0.0009(6) 0.0000(5) -0.0047(7)
O2 0.0323(7) 0.0239(8) 0.0202(6) 0.0044(6) 0.0007(6) -0.0012(7)
O3 0.0622(12) 0.0184(8) 0.0310(8) 0.0020(6) 0.0105(8) -0.0027(8)
C3 0.0202(9) 0.0170(10) 0.0212(9) 0.0012(7) 0.0081(7) -0.0003(8)
C4 0.0181(8) 0.0228(10) 0.0159(8) 0.0016(8) 0.0032(7) -0.0009(7)
C1 0.0182(9) 0.0218(10) 0.0189(9) 0.0038(8) 0.0058(7) 0.0000(8)
C2 0.0223(9) 0.0205(10) 0.0167(8) -0.0019(7) 0.0058(7) -0.0032(7)
C12 0.0231(9) 0.0202(10) 0.0157(8) -0.0013(7) 0.0066(7) 0.0010(8)
C9 0.0292(10) 0.0204(11) 0.0203(10) 0.0010(8) 0.0067(8) 0.0005(8)
C7 0.0206(9) 0.0245(11) 0.0205(10) 0.0029(7) 0.0048(8) 0.0017(8)
C10 0.0266(10) 0.0231(11) 0.0199(9) 0.0019(8) 0.0039(8) -0.0026(8)
C13 0.0202(9) 0.0225(11) 0.0219(9) 0.0032(8) 0.0040(7) 0.0013(8)
C8 0.0208(9) 0.0174(10) 0.0209(9) -0.0008(8) 0.0058(7) 0.0000(7)
C11 0.0278(10) 0.0229(11) 0.0270(10) -0.0067(9) 0.0081(8) 0.0028(9)
C6 0.0259(9) 0.0236(11) 0.0224(9) 0.0008(8) 0.0075(8) 0.0058(8)
C5 0.0292(10) 0.0230(10) 0.0186(9) -0.0038(8) 0.0065(8) 0.0009(9)
C16 0.0208(10) 0.0269(12) 0.0363(12) 0.0012(9) -0.0021(8) -0.0014(8)
C14 0.0260(11) 0.0306(14) 0.0484(14) -0.0121(11) 0.0023(10) 0.0059(9)
C15 0.0329(12) 0.072(2) 0.0335(13) 0.0282(13) 0.0077(10) 0.0117(13)
loop_
_atom_type_symbol
_atom_type_description
_atom_type_scat_dispersion_real
_atom_type_scat_dispersion_imag
_atom_type_scat_source
C C 0.0181 0.0091 'International Tables Vol C Tables 4.2.6.8 and 6.1.1.4'
H H 0.0000 0.0000 'International Tables Vol C Tables 4.2.6.8 and 6.1.1.4'
O O 0.0492 0.0322 'International Tables Vol C Tables 4.2.6.8 and 6.1.1.4'
loop_
_geom_angle_atom_site_label_1
_geom_angle_atom_site_label_2
_geom_angle_atom_site_label_3
_geom_angle
_geom_angle_site_symmetry_1
_geom_angle_site_symmetry_3
_geom_angle_publ_flag
C12 O5 C4 116.77(15) . . ?
C3 O4 C11 116.96(15) . . ?
C9 O1 C8 109.97(15) . . ?
C9 O2 C10 109.46(15) . . ?
O4 C3 C4 115.20(17) . . ?
O4 C3 C2 125.99(17) . . ?
C2 C3 C4 118.81(18) . . ?
O5 C4 C3 117.68(17) . . ?
C5 C4 O5 120.67(17) . . ?
C5 C4 C3 121.33(17) . . ?
C2 C1 C7 119.41(18) . . ?
C6 C1 C2 119.63(18) . . ?
C6 C1 C7 120.95(18) . . ?
C3 C2 C1 120.42(17) . . ?
C3 C2 H2 119.8 . . ?
C1 C2 H2 119.8 . . ?
O5 C12 C13 111.90(16) . . ?
O6 C12 O5 122.61(17) . . ?
O6 C12 C13 125.45(18) . . ?
O2 C9 O1 111.65(18) . . ?
O3 C9 O1 124.4(2) . . ?
O3 C9 O2 123.9(2) . . ?
C1 C7 H7A 109.0 . . ?
C1 C7 H7B 109.0 . . ?
H7A C7 H7B 107.8 . . ?
C8 C7 C1 112.84(16) . . ?
C8 C7 H7A 109.0 . . ?
C8 C7 H7B 109.0 . . ?
O2 C10 H10A 111.0 . . ?
O2 C10 H10B 111.0 . . ?
O2 C10 C8 103.74(15) . . ?
H10A C10 H10B 109.0 . . ?
C8 C10 H10A 111.0 . . ?
C8 C10 H10B 111.0 . . ?
C12 C13 C14 105.31(17) . . ?
C12 C13 C15 108.96(17) . . ?
C16 C13 C12 113.38(17) . . ?
C16 C13 C14 110.07(19) . . ?
C16 C13 C15 109.1(2) . . ?
C15 C13 C14 109.9(2) . . ?
O1 C8 C7 110.01(16) . . ?
O1 C8 C10 102.15(15) . . ?
O1 C8 H8 110.0 . . ?
C7 C8 C10 114.30(16) . . ?
C7 C8 H8 110.0 . . ?
C10 C8 H8 110.0 . . ?
O4 C11 H11A 109.5 . . ?
O4 C11 H11B 109.5 . . ?
O4 C11 H11C 109.5 . . ?
H11A C11 H11B 109.5 . . ?
H11A C11 H11C 109.5 . . ?
H11B C11 H11C 109.5 . . ?
C1 C6 H6 119.8 . . ?
C1 C6 C5 120.47(19) . . ?
C5 C6 H6 119.8 . . ?
C4 C5 C6 119.31(18) . . ?
C4 C5 H5 120.3 . . ?
C6 C5 H5 120.3 . . ?
C13 C16 H16A 109.5 . . ?
C13 C16 H16B 109.5 . . ?
C13 C16 H16C 109.5 . . ?
H16A C16 H16B 109.5 . . ?
H16A C16 H16C 109.5 . . ?
H16B C16 H16C 109.5 . . ?
C13 C14 H14A 109.5 . . ?
C13 C14 H14B 109.5 . . ?
C13 C14 H14C 109.5 . . ?
H14A C14 H14B 109.5 . . ?
H14A C14 H14C 109.5 . . ?
H14B C14 H14C 109.5 . . ?
C13 C15 H15A 109.5 . . ?
C13 C15 H15B 109.5 . . ?
C13 C15 H15C 109.5 . . ?
H15A C15 H15B 109.5 . . ?
H15A C15 H15C 109.5 . . ?
H15B C15 H15C 109.5 . . ?
loop_
_geom_bond_atom_site_label_1
_geom_bond_atom_site_label_2
_geom_bond_distance
_geom_bond_site_symmetry_2
_geom_bond_publ_flag
O5 C4 1.402(2) . ?
O5 C12 1.372(2) . ?
O4 C3 1.360(2) . ?
O4 C11 1.433(2) . ?
O6 C12 1.200(3) . ?
O1 C9 1.340(2) . ?
O1 C8 1.458(3) . ?
O2 C9 1.337(3) . ?
O2 C10 1.448(3) . ?
O3 C9 1.194(3) . ?
C3 C4 1.403(3) . ?
C3 C2 1.390(3) . ?
C4 C5 1.372(3) . ?
C1 C2 1.397(3) . ?
C1 C7 1.518(3) . ?
C1 C6 1.386(3) . ?
C2 H2 0.9500 . ?
C12 C13 1.526(3) . ?
C7 H7A 0.9900 . ?
C7 H7B 0.9900 . ?
C7 C8 1.516(3) . ?
C10 H10A 0.9900 . ?
C10 H10B 0.9900 . ?
C10 C8 1.525(3) . ?
C13 C16 1.521(3) . ?
C13 C14 1.534(3) . ?
C13 C15 1.532(3) . ?
C8 H8 1.0000 . ?
C11 H11A 0.9800 . ?
C11 H11B 0.9800 . ?
C11 H11C 0.9800 . ?
C6 H6 0.9500 . ?
C6 C5 1.399(3) . ?
C5 H5 0.9500 . ?
C16 H16A 0.9800 . ?
C16 H16B 0.9800 . ?
C16 H16C 0.9800 . ?
C14 H14A 0.9800 . ?
C14 H14B 0.9800 . ?
C14 H14C 0.9800 . ?
C15 H15A 0.9800 . ?
C15 H15B 0.9800 . ?
C15 H15C 0.9800 . ?
loop_
_geom_torsion_atom_site_label_1
_geom_torsion_atom_site_label_2
_geom_torsion_atom_site_label_3
_geom_torsion_atom_site_label_4
_geom_torsion
_geom_torsion_site_symmetry_1
_geom_torsion_site_symmetry_2
_geom_torsion_site_symmetry_3
_geom_torsion_site_symmetry_4
_geom_torsion_publ_flag
O5 C4 C5 C6 174.54(18) . . . . ?
O5 C12 C13 C16 18.7(2) . . . . ?
O5 C12 C13 C14 -101.7(2) . . . . ?
O5 C12 C13 C15 140.4(2) . . . . ?
O4 C3 C4 O5 4.5(2) . . . . ?
O4 C3 C4 C5 178.08(18) . . . . ?
O4 C3 C2 C1 -178.77(18) . . . . ?
O6 C12 C13 C16 -163.5(2) . . . . ?
O6 C12 C13 C14 76.1(3) . . . . ?
O6 C12 C13 C15 -41.8(3) . . . . ?
O2 C10 C8 O1 16.84(18) . . . . ?
O2 C10 C8 C7 135.61(17) . . . . ?
C3 C4 C5 C6 1.2(3) . . . . ?
C4 O5 C12 O6 -16.3(3) . . . . ?
C4 O5 C12 C13 161.61(16) . . . . ?
C4 C3 C2 C1 0.6(3) . . . . ?
C1 C7 C8 O1 -76.0(2) . . . . ?
C1 C7 C8 C10 169.74(17) . . . . ?
C1 C6 C5 C4 -0.2(3) . . . . ?
C2 C3 C4 O5 -174.91(16) . . . . ?
C2 C3 C4 C5 -1.4(3) . . . . ?
C2 C1 C7 C8 -78.3(2) . . . . ?
C2 C1 C6 C5 -0.5(3) . . . . ?
C12 O5 C4 C3 -70.2(2) . . . . ?
C12 O5 C4 C5 116.2(2) . . . . ?
C9 O1 C8 C7 -136.32(17) . . . . ?
C9 O1 C8 C10 -14.6(2) . . . . ?
C9 O2 C10 C8 -14.4(2) . . . . ?
C7 C1 C2 C3 179.26(17) . . . . ?
C7 C1 C6 C5 -179.44(19) . . . . ?
C10 O2 C9 O1 5.7(2) . . . . ?
C10 O2 C9 O3 -175.1(2) . . . . ?
C8 O1 C9 O2 6.3(2) . . . . ?
C8 O1 C9 O3 -172.9(2) . . . . ?
C11 O4 C3 C4 -171.27(17) . . . . ?
C11 O4 C3 C2 8.1(3) . . . . ?
C6 C1 C2 C3 0.3(3) . . . . ?
C6 C1 C7 C8 100.6(2) . . . . ?
loop_
_twin_individual_id
_twin_individual_mass_fraction_refined
1 0.5(2)
2 0.5(2)
