#------------------------------------------------------------------------------
#$Date: 2021-10-06 18:28:53 +0300 (Wed, 06 Oct 2021) $
#$Revision: 269697 $
#$URL: file:///home/coder/svn-repositories/cod/cif/7/70/83/7708313.cif $
#------------------------------------------------------------------------------
#
# This file is available in the Crystallography Open Database (COD),
# http://www.crystallography.net/
#
# All data on this site have been placed in the public domain by the
# contributors.
#
data_7708313
loop_
_publ_author_name
'Liu, Bo-Liang'
'Xu, Qiao-Fei'
'Long, La-Sheng'
'Zheng, Lan-Sun'
_publ_section_title
;
 A Gd-based borate-carbonate framework exhibiting a large magnetocaloric
 effect at a low magnetic field.
;
_journal_issue                   37
_journal_name_full
'Dalton transactions (Cambridge, England : 2003)'
_journal_page_first              12831
_journal_page_last               12834
_journal_paper_doi               10.1039/d1dt02624k
_journal_volume                  50
_journal_year                    2021
_chemical_formula_moiety         'C H4 B Gd O7'
_chemical_formula_sum            'C H4 B Gd O7'
_chemical_formula_weight         296.10
_space_group_crystal_system      orthorhombic
_space_group_IT_number           57
_space_group_name_Hall           '-P 2c 2b'
_space_group_name_H-M_alt        'P b c m'
_atom_sites_solution_hydrogens   difmap
_audit_creation_date             2021-03-30
_audit_creation_method
;
Olex2 1.3-alpha
(compiled 2020.11.12 svn.r5f609507 for OlexSys, GUI svn.r6272)
;
_audit_update_record
;
2021-03-31 deposited with the CCDC.	2021-08-30 downloaded from the CCDC.
;
_cell_angle_alpha                90
_cell_angle_beta                 90
_cell_angle_gamma                90
_cell_formula_units_Z            4
_cell_length_a                   6.1685(4)
_cell_length_b                   8.8840(6)
_cell_length_c                   9.1876(7)
_cell_measurement_reflns_used    1745
_cell_measurement_temperature    100.15
_cell_measurement_theta_max      72.7490
_cell_measurement_theta_min      7.7780
_cell_volume                     503.49(6)
_computing_molecular_graphics    'Olex2 1.3-alpha (Dolomanov et al., 2009)'
_computing_publication_material  'Olex2 1.3-alpha (Dolomanov et al., 2009)'
_computing_structure_refinement  'SHELXL 2018/3 (Sheldrick, 2015)'
_computing_structure_solution    'SHELXT 2018/2 (Sheldrick, 2018)'
_diffrn_ambient_temperature      100.15
_diffrn_measured_fraction_theta_full 1.000
_diffrn_measured_fraction_theta_max 1.000
_diffrn_measurement_device_type  'SuperNova, Dual, Cu at home/near, Atlas'
_diffrn_radiation_type           CuK\a
_diffrn_radiation_wavelength     1.54184
_diffrn_reflns_av_R_equivalents  0.0489
_diffrn_reflns_av_unetI/netI     0.0277
_diffrn_reflns_Laue_measured_fraction_full 1.000
_diffrn_reflns_Laue_measured_fraction_max 1.000
_diffrn_reflns_limit_h_max       7
_diffrn_reflns_limit_h_min       -5
_diffrn_reflns_limit_k_max       10
_diffrn_reflns_limit_k_min       -7
_diffrn_reflns_limit_l_max       10
_diffrn_reflns_limit_l_min       -10
_diffrn_reflns_number            2797
_diffrn_reflns_point_group_measured_fraction_full 1.000
_diffrn_reflns_point_group_measured_fraction_max 1.000
_diffrn_reflns_theta_full        64.972
_diffrn_reflns_theta_max         64.972
_diffrn_reflns_theta_min         7.179
_exptl_absorpt_coefficient_mu    85.215
_exptl_crystal_colour            'clear light colourless'
_exptl_crystal_colour_lustre     clear
_exptl_crystal_colour_modifier   light
_exptl_crystal_colour_primary    colourless
_exptl_crystal_density_diffrn    3.906
_exptl_crystal_description       block
_exptl_crystal_F_000             540
_refine_diff_density_max         1.965
_refine_diff_density_min         -1.233
_refine_diff_density_rms         0.291
_refine_ls_extinction_method     none
_refine_ls_goodness_of_fit_ref   1.154
_refine_ls_hydrogen_treatment    refxyz
_refine_ls_matrix_type           full
_refine_ls_number_parameters     57
_refine_ls_number_reflns         457
_refine_ls_number_restraints     64
_refine_ls_restrained_S_all      1.107
_refine_ls_R_factor_all          0.0516
_refine_ls_R_factor_gt           0.0467
_refine_ls_shift/su_max          0.000
_refine_ls_shift/su_mean         0.000
_refine_ls_structure_factor_coef Fsqd
_refine_ls_weighting_details
'w=1/[\s^2^(Fo^2^)+(0.0890P)^2^+1.2755P] where P=(Fo^2^+2Fc^2^)/3'
_refine_ls_weighting_scheme      calc
_refine_ls_wR_factor_gt          0.1371
_refine_ls_wR_factor_ref         0.1426
_reflns_Friedel_coverage         0.000
_reflns_number_gt                382
_reflns_number_total             457
_reflns_threshold_expression     'I > 2\s(I)'
_cod_data_source_file            d1dt02624k2.cif
_cod_data_source_block           1_pl
_cod_depositor_comments          'Adding full bibliography for 7708313.cif.'
_cod_database_code               7708313
_shelx_shelxl_version_number     2018/3
_shelx_space_group_comment
;
The symmetry employed for this shelxl refinement is uniquely defined
by the following loop, which should always be used as a source of
symmetry information in preference to the above space-group names.
They are only intended as comments.
;
_olex2_refinement_description
;
1. Fixed Uiso
 At 1.5 times of:
  All O(H) groups
2. Restrained distances
 O1-H1
 0.87 with sigma of 0.01
 H1_$2-H1_$1
 2.1 with sigma of 0.05
 H1_$3-H2
 2.15 with sigma of 0.05
 O2-H2
 0.85 with sigma of 0.05
 H2-H2_$4
 2.15 with sigma of 0.05
 Gd1-H1
 3.296649 with sigma of 0.02
 B1-H1
 1.949267 with sigma of 0.02
3. Rigid bond restraints
 O3, C1, O4
 with sigma for 1-2 distances of 0.01 and sigma for 1-3 distances of 0.01
4. Uiso/Uaniso restraints and constraints
B1 \\sim C1 \\sim O3 \\sim O4: within 2A with sigma of 0.01 and sigma for
terminal atoms of 0.02 within 2A
All non-hydrogen atoms restrained to be isotropic: with sigma of 0.2 and sigma
for terminal atoms of 0.4
;
_shelx_res_file
;
TITL 1 P b c a R = 0.04 New:Pbcm
    1_pl.res
    created by SHELXL-2018/3 at 10:46:16 on 30-Mar-2021
CELL 1.54184 6.1685 8.884 9.1876 90 90 90
ZERR 4 0.0004 0.0006 0.0007 0 0 0
LATT 1
SYMM -X,-Y,0.5+Z
SYMM +X,0.5-Y,-Z
SYMM -X,0.5+Y,0.5-Z
SFAC C H B Gd O
UNIT 4 16 4 4 28
EQIV $1 +X,0.5-Y,0.5+Z
EQIV $2 +X,0.5-Y,-1-Z
EQIV $3 -3-X,-Y,-1-Z
EQIV $4 +X,+Y,-0.5-Z
ISOR 0.2 0.4
SIMU 0.01 0.02 2 B1 C1 O3 O4
DELU O3 C1 O4
DANG 3.296649 0.02 Gd1 H1
DFIX 0.87 0.01 O1 H1
DANG 1.949267 0.02 B1 H1
DFIX 2.1 0.05 H1_$2 H1_$1
DFIX 2.15 0.05 H1_$3 H2
DFIX 0.85 0.05 O2 H2
DFIX 2.15 0.05 H2 H2_$4

L.S. 20
PLAN  4
TEMP -173
CONF
BOND $H
MORE -1
fmap 2
acta
OMIT 0 130
REM <olex2.extras>
REM <HklSrc "%.\\1_sx.hkl">
REM </olex2.extras>

WGHT    0.089000    1.275500
FVAR       0.41971
GD1   4   -0.999905    0.250000   -0.500000    10.50000    0.00993    0.03767 =
         0.02822    0.02206    0.00000    0.00000
O2    5   -1.644969    0.151203   -0.414372    11.00000    0.01470    0.00627 =
         0.01828   -0.00046    0.00087   -0.00111
O1    5   -1.356992    0.162456   -0.596865    11.00000    0.01384    0.01276 =
         0.01850    0.00051    0.00099    0.00261
H1    2   -1.436763    0.093517   -0.638105    11.00000   -1.50000
O3    5   -1.100101    0.466443   -0.628784    11.00000    0.02407    0.03894 =
         0.01824    0.01073    0.00649    0.01321
O4    5   -1.059935    0.675624   -0.750000    10.50000    0.01871    0.00798 =
         0.05929    0.00000    0.00000   -0.00258
C1    1   -1.087692    0.532084   -0.750000    10.50000    0.00858    0.01416 =
         0.02580    0.00000    0.00000    0.00272
B1    3   -1.500444    0.250000   -0.500000    10.50000    0.00798    0.01225 =
         0.02163    0.00316    0.00000    0.00000
H2    2   -1.537025    0.143049   -0.366231    11.00000    0.13488
HKLF 4 1 0 0 -0.5 1 0 0 0 -1 0




REM  1 P b c a R = 0.04 New:Pbcm
REM wR2 = 0.1426, GooF = S = 1.154, Restrained GooF = 1.107 for all data
REM R1 = 0.0467 for 382 Fo > 4sig(Fo) and 0.0516 for all 457 data
REM 57 parameters refined using 64 restraints

END

WGHT      0.0895      1.2702

REM Highest difference peak  1.965,  deepest hole -1.233,  1-sigma level  0.291
Q1    1  -1.0003  0.2505 -0.4083  11.00000  0.05    1.96
Q2    1  -1.0026  0.6029 -0.5882  11.00000  0.05    0.79
Q3    1  -1.6345  0.1596 -0.3025  11.00000  0.05    0.72
Q4    1  -0.9954  0.1624 -0.4898  11.00000  0.05    0.72
;
_shelx_res_checksum              74659
_shelx_hkl_file
;
   0   0  -1    0.28    1.08
   0   0  -2 7875.35  108.08
   0   0  -3    1.65    5.27
   0   0  -4 9999.00  172.75
   0   0  -5   -3.29    5.25
   0   0  -6 9862.85  206.91
   0   0  -7   -5.04    3.42
   0   0  -8 1104.09   82.66
   0   0  -9    0.49    2.79
   0   0  -9    3.94    2.98
   0   0  -9   -2.80    5.88
   0   0 -10 1504.92  114.46
   0   0 -10 1305.93   47.09
   0   0 -10 1436.84   53.34
   0   0 -11   -1.48    1.93
   0   0 -11   -4.89    3.84
   0   0 -11   -6.48    4.49
   0   0 -12 1827.08   52.93
   0   0 -12 1807.93   51.07
   0   0 -12 1878.51   57.85
   0   0 -13    6.58    3.67
   0   0 -13    1.30    1.86
   0   0 -13    1.18    2.41
   0   0 -14  439.21   20.09
   0   1   0   -1.49    1.87
   0   1   0   -1.85    2.82
   0   1   0    0.33    1.22
   0  -1  -1   -0.72    2.84
   0   1  -1    0.97    1.06
   0   1  -1    0.90    1.38
   0   1  -1    1.62    2.57
   0  -1  -2    2.80    2.27
   0   1  -2   -2.20    3.38
   0   1  -2    1.90    2.62
   0   1  -3   -4.12    7.27
   0  -1  -3   -2.93    2.76
   0   1  -3    4.66    3.35
   0  -1  -4   -4.30    3.73
   0   1  -4    1.21    3.53
   0   1  -5   -0.36    4.95
   0  -1  -5    5.75    8.07
   0  -1  -6    1.57    6.79
   0   1  -6    1.66    5.35
   0  -1  -7    3.22    3.88
   0   1  -7   -0.61    8.20
   0   1  -8   -4.29    5.84
   0  -1  -8    4.71    7.20
   0  -1  -9    3.90    2.01
   0  -1  -9    2.39    5.22
   0  -1  -9    4.08    3.41
   0   1  -9    0.23    1.82
   0   1  -9   -7.38   10.12
   0   1  -9    5.29    3.52
   0   1 -10   -8.35    8.51
   0   1 -10   -2.49    2.38
   0   1 -10   -4.35    3.75
   0   1 -10    0.92    3.22
   0  -1 -10   -5.59    7.85
   0  -1 -10    0.11    3.18
   0  -1 -10    1.68    3.08
   0  -1 -11    0.11    2.72
   0   1 -11    2.29    1.85
   0   1 -11   -5.47    4.03
   0  -1 -11    6.16    5.89
   0   1 -11    0.97    2.97
   0   1 -12   -3.40    2.88
   0  -1 -12    1.46    2.15
   0   1 -12   -2.81    2.61
   0   1 -12   -0.15    2.02
   0  -1 -12    1.80    3.63
   0  -1 -12   -2.64    3.38
   0  -1 -13    3.68    3.32
   0   1 -13   10.14    4.51
   0  -1 -13   -1.30    2.83
   0   1 -13    2.66    2.74
   0  -1 -13    4.16    2.08
   0  -1 -14    0.85    1.80
   0   1 -14    2.66    1.94
   0   2   0 6871.29  119.04
   0   2   0 7072.58  118.41
   0   2   1    9.18    3.74
   0   2  -1    2.00    3.09
   0   2   1    6.03    5.20
   0   2  -1   12.47    6.55
   0   2  -2 2407.79   76.64
   0   2   2 2095.27   71.38
   0   2  -2 2298.50   67.26
   0   2  -2 2170.62   43.07
   0  -2  -3    3.33    6.55
   0   2  -3    0.95    3.89
   0   2  -3   -1.22    2.45
   0   2  -3    9.20    6.33
   0   2  -4 4982.99  139.51
   0   2  -4 5134.70  137.72
   0  -2  -5   12.41    6.10
   0   2  -5   21.45    9.29
   0  -2  -6 5387.17  170.97
   0   2  -6 5337.05  164.10
   0   2  -7    6.75    3.55
   0  -2  -7   11.48   13.45
   0   2  -8 2922.24  142.03
   0  -2  -8 3134.93  154.41
   0   2  -9   13.74   10.32
   0   2  -9    5.51    1.36
   0  -2  -9    6.81    5.85
   0  -2  -9   10.76    4.25
   0   2  -9    5.95    3.97
   0  -2  -9   -5.51    4.08
   0   2 -10 2099.62   55.03
   0  -2 -10 2264.32  148.74
   0   2 -10 1988.52   56.78
   0  -2 -10 2083.41   67.85
   0  -2 -10 2225.91   63.04
   0   2  10 1991.77  130.38
   0   2 -11    2.13    1.66
   0  -2 -11    4.82    3.14
   0   2 -11    0.79    2.35
   0  -2 -11   -3.01    3.47
   0  -2 -12 2279.87   65.26
   0   2 -12 2429.42   60.90
   0  -2 -12 2293.28   60.15
   0   2 -13    1.16    1.94
   0  -2 -13   -0.79    2.14
   0  -2 -13   -4.76    3.71
   0  -2 -13    2.23    2.90
   0  -2 -14 1017.58   33.98
   0   2 -14 1164.69   34.29
   0   3   0    3.85    3.32
   0   3   0   -4.84    4.74
   0   3   1    3.48    3.78
   0   3  -1    2.70    4.02
   0   3   1   -1.73    4.09
   0   3  -1    5.18    3.23
   0   3   2    4.16    3.33
   0   3  -2    7.46    7.60
   0   3   2    8.93    7.68
   0   3  -2   -3.76    4.79
   0   3   3   -3.97    3.61
   0   3  -3   -2.09    6.31
   0   3  -3   -1.04    3.21
   0   3  -4    2.78    4.12
   0   3  -4   -1.96    6.46
   0   3   4   -4.13    7.24
   0  -3  -5   -0.68    7.33
   0   3  -5   -1.47    9.89
   0   3  -5   -5.42    8.88
   0   3   5   16.69   13.12
   0  -3  -6   -9.37    7.12
   0   3   6   -7.14    7.66
   0   3  -6    0.40    8.45
   0   3   7   -7.33   11.28
   0   3  -7   -4.36    7.15
   0  -3  -7    1.46    3.80
   0   3  -8    1.85    3.10
   0  -3  -8   -4.36    7.23
   0   3  -8   -3.14    3.27
   0  -3  -8   -0.73    2.23
   0  -3  -8   -3.77    2.44
   0   3   8   -0.20    8.45
   0   3  -8    0.83    6.31
   0   3  -9   -7.85    7.78
   0   3   9    6.71    9.08
   0  -3  -9    3.46    3.79
   0  -3  -9    1.40    2.24
   0   3  -9    1.36    1.48
   0   3  -9    0.99    1.78
   0  -3 -10    0.92    4.54
   0   3 -10    8.44    4.76
   0  -3 -11   -2.12    2.41
   0  -3 -11    3.25    2.02
   0   3 -11   -3.06    3.43
   0  -3 -12   -3.89    2.37
   0   3 -12    1.40    2.31
   0   3 -13    1.69    2.45
   0  -3 -13    1.84    1.55
   0  -3 -13    0.12    2.12
   0  -3 -14   -2.65    2.61
   0   3 -14    0.00    1.14
   0   4   0 1787.87   77.81
   0   4   0 1849.65   76.70
   0   4   1   12.27    6.83
   0   4  -1    4.94    7.02
   0   4  -1    1.94    5.80
   0   4   1    6.84    6.08
   0   4   2 5000.97  143.82
   0   4  -2 4766.01  132.63
   0   4  -2 4616.10  132.37
   0   4   2 4912.50  134.78
   0   4   3   29.98   12.23
   0   4   3   30.99   12.02
   0   4  -3   23.06    8.43
   0   4   4 5009.39  147.43
   0   4  -4 4815.47  154.00
   0   4  -4 5178.48  159.39
   0   4   4 5017.71  162.23
   0   4  -5    1.16    8.85
   0   4  -5    6.90    6.05
   0   4   5    1.40    4.32
   0   4   6 2072.00  124.14
   0   4  -6 1867.36  107.83
   0   4   7   19.71   13.42
   0   4  -7   17.32    5.19
   0   4  -7    3.13    8.64
   0  -4  -7   13.20    6.09
   0   4  -8 3241.92   70.09
   0  -4  -8 3439.79   82.33
   0  -4  -8 3243.26   71.32
   0   4  -8 3336.24  157.05
   0   4  -8 3213.79   72.48
   0   4  -9    8.05    3.42
   0  -4  -9    8.78    4.66
   0  -4  -9    7.14    3.35
   0   4   9    9.51    9.90
   0  -4 -10 1416.01   45.63
   0   4 -10 1464.49   46.21
   0  -4 -10 1440.64   51.89
   0  -4 -11    2.15    4.61
   0  -4 -11   -2.90    2.81
   0   4 -11   -1.35    3.47
   0  -4 -12 1109.41   40.95
   0  -4 -12 1079.07   38.27
   0   4 -12 1101.60   35.20
   0   4 -13    4.66    2.70
   0  -4 -13    1.59    1.71
   0   4 -14 1062.43   25.69
   0   5   0    1.79    3.25
   0   5   0    3.53    7.36
   0   5  -1   -1.52    3.11
   0   5  -1    7.02    6.46
   0   5   1    5.36    6.39
   0   5   1    4.77    5.58
   0   5   2   -1.93    5.89
   0   5  -2    4.16    6.99
   0   5  -2   -1.58    2.44
   0   5   2    2.75    5.13
   0   5   3   -0.47    7.43
   0   5   3    5.49    7.63
   0   5  -3   -2.07    4.91
   0   5   4  -11.53   12.67
   0   5  -4   -3.99    4.04
   0   5   4   10.31    7.81
   0   5  -4   -0.60    4.81
   0   5  -5   -3.56    7.00
   0   5   5   -7.31    3.46
   0   5   5   23.61   11.83
   0   5  -5   14.93   11.39
   0   5   6    3.33    5.37
   0   5   6  -23.49   12.57
   0  -5  -6    4.88    3.91
   0   5  -6    3.85    5.11
   0   5  -6   -0.73    2.08
   0   5   6  -20.27   12.85
   0   5  -6    1.09    1.95
   0   5  -6   10.96    8.52
   0   5  -7    0.39    2.56
   0   5  -7    0.08    1.79
   0   5   7   -1.35    3.21
   0   5   7  -13.76   11.47
   0   5  -7   16.14   14.19
   0  -5  -7    2.31    1.77
   0   5  -7    4.97    3.10
   0   5  -8   -2.22    2.10
   0  -5  -8    3.09    3.90
   0   5  -8    0.80    3.51
   0  -5  -8    2.65    3.97
   0   5  -8    3.34    3.32
   0   5   8    2.81   10.16
   0   5   8    4.10    3.78
   0   5  -9   -1.16    2.04
   0  -5  -9    0.60    2.14
   0   5  -9   -0.17    1.91
   0   5   9    3.56    2.84
   0  -5 -10   -0.66    1.95
   0   5 -10    3.32    2.25
   0  -5 -10    0.82    3.40
   0   5 -11    3.30    2.79
   0  -5 -11    1.05    2.57
   0  -5 -12    2.54    2.59
   0  -5 -12    1.64    2.73
   0   5 -12   -1.12    1.80
   0   5 -13    2.17    1.37
   0  -5 -13    2.62    2.27
   0  -5 -13    1.05    1.04
   0   6   0  727.82   56.93
   0   6   0  718.15   58.97
   0   6  -1   -0.25    7.36
   0   6   1   -1.96    4.24
   0   6  -1    1.93    4.49
   0   6   1   -5.48    8.52
   0   6  -2 2633.09  111.64
   0   6   2 2753.88  124.15
   0   6   2 2434.35  103.12
   0   6  -2 2639.14  111.92
   0  -6  -3    7.31    3.96
   0   6  -3    6.80    5.90
   0   6  -3   11.10    5.64
   0   6   3    1.15    7.76
   0   6   3    8.56    4.14
   0  -6  -4 2211.13   65.35
   0   6  -4 2014.41  109.35
   0   6  -4 2044.16   52.52
   0   6   4 2072.04   59.00
   0   6  -4 1837.21   51.50
   0   6  -4 2030.47  104.63
   0   6   5   28.96    7.68
   0   6  -5    9.76    5.95
   0   6  -5   10.51    9.14
   0   6   5   37.91   17.56
   0   6  -5   23.89    5.57
   0   6  -5   15.79    4.54
   0  -6  -5   16.28    6.04
   0   6  -6  597.02   30.17
   0  -6  -6  702.43   38.28
   0   6   6  654.23   76.97
   0   6   6  677.82   35.11
   0   6  -6  626.72   29.30
   0   6   7   11.60    5.82
   0   6  -7    6.09    2.64
   0   6  -7    7.49    3.11
   0   6  -7    3.56    2.30
   0   6  -8 2634.47   61.09
   0   6  -8 2527.97   60.32
   0  -6  -8 2533.26   66.32
   0   6  -9   32.54    6.68
   0   6   9   39.64    8.78
   0  -6  -9   30.96    6.95
   0  -6  -9   37.50    8.11
   0   6 -10 1064.46   34.83
   0  -6 -10  994.95   34.93
   0  -6 -10 1069.18   39.15
   0  -6 -11    5.80    3.77
   0   6 -11    7.25    2.79
   0  -6 -12  767.41   27.92
   0   6 -12  779.54   22.41
   0  -6 -12  735.92   24.95
   0   7   0    0.10    1.16
   0  -7   0   -1.73    2.45
   0   7   0    0.67    1.97
   0   7   1   -0.59    1.79
   0   7   1    6.13    7.31
   0   7   1    2.78    2.99
   0  -7   1    1.82    3.18
   0   7  -1    1.54    1.93
   0  -7  -1   -0.40    1.98
   0   7  -1    0.27    1.75
   0   7  -1   -1.13    2.92
   0  -7  -2   -2.44    4.73
   0  -7   2   -0.77    1.49
   0   7  -2    1.21    1.74
   0   7   2    1.09    6.18
   0   7   2    1.69    2.74
   0   7  -3   -5.99    3.52
   0   7   3    1.24    3.70
   0   7  -3    2.46    1.52
   0  -7  -3   -0.73    2.99
   0   7   3   -3.96    2.81
   0  -7  -4    0.95    3.85
   0   7  -4  -10.19    8.05
   0   7  -4    1.00    2.16
   0   7   4    9.17    6.72
   0   7   4    1.57    4.06
   0   7  -4    0.85    2.44
   0  -7  -5    6.12    3.31
   0   7   5    0.14    3.73
   0   7  -5    1.79    1.47
   0   7  -5   -1.10    2.16
   0   7  -6    1.01    2.60
   0   7  -6   -0.66    1.98
   0   7   6    1.96    3.09
   0   7  -7   -1.78    2.35
   0   7   7   -3.59    3.81
   0   7  -7    3.11    2.66
   0  -7  -8    0.57    2.89
   0   7  -8   -1.18    1.87
   0   7   8   -0.36    2.24
   0   7  -9    5.26    2.39
   0   7  -9    1.19    2.00
   0   7   9    4.64    2.94
   0  -7  -9    2.69    3.03
   0   7 -10    2.31    1.57
   0   7  10   -1.70    2.13
   0   7 -10    2.04    1.94
   0  -7 -11    3.40    2.37
   0   7 -11    3.26    1.32
   0   7 -11    0.81    1.00
   0   8   0 1875.13   53.04
   0   8   0 2054.38   51.17
   0  -8   0 2039.84   60.18
   0   8  -1    0.58    2.10
   0  -8  -1   -4.27    4.60
   0  -8   1   -1.87    2.95
   0   8  -1   -3.66    2.49
   0   8   1    0.39    2.17
   0   8   2 1793.74   53.43
   0  -8  -2 1902.89   58.10
   0   8  -2 1787.67   46.90
   0   8   3    1.70    3.57
   0   8  -3    4.18    2.22
   0  -8  -3    1.48    2.30
   0   8  -3   -1.18    1.78
   0   8  -4 1765.49   46.41
   0   8  -4 1752.90   47.11
   0   8   4 1667.87   51.24
   0  -8  -4 1858.51   57.48
   0   8  -5    3.94    2.77
   0   8  -5    4.24    1.87
   0   8   5    6.36    3.85
   0   8  -6  780.83   29.44
   0   8   6  852.78   35.82
   0   8  -6  833.95   31.33
   0  -8  -7    7.26    4.01
   0   8  -7   12.64    4.25
   0   8   7    6.43    2.69
   0   8  -8  767.08   25.84
   0   8   8  797.77   30.39
   0   8   9    1.17    1.69
   0   8  -9   -1.80    1.57
   0   8 -10  316.20   12.08
   0   8  10  264.04   11.90
   0   9   0    5.19    2.78
   0  -9   0    0.73    2.95
   0   9   0    1.30    1.78
   0  -9   1    1.93    2.49
   0  -9  -1   -2.64    2.64
   0   9  -1    0.40    2.06
   0   9   1   -1.61    2.95
   0   9  -2   -1.00    2.19
   0   9   2   -1.77    1.55
   0  -9   2    1.23    1.44
   0  -9  -2   -1.95    1.91
   0  -9  -3   -1.85    2.50
   0   9   3    0.27    1.98
   0   9  -3   -0.89    2.32
   0   9   4   -3.15    2.65
   0   9  -4    3.87    2.29
   0   9  -4   -0.69    1.52
   0   9   5   -0.59    3.01
   0   9  -5   -1.23    1.79
   0   9   6    2.76    2.20
   0   9  -6   -0.79    1.85
   0  -9  -7   -1.79    1.52
   0   9   7   -0.85    1.54
   0   9  -7   -1.20    1.20
   0   9  -8    0.56    0.80
   0   9   8    0.62    1.17
   0   9  -9   -1.87    1.04
   0 -10   0  973.77   31.96
   0  10   1    5.40    2.33
   0  10  -1    3.93    2.04
   0 -10   1    4.28    2.20
   0  10   2  300.99   17.31
   0  10  -2  281.41   14.63
   0  10   3    0.56    1.41
   0  10  -3    2.56    1.70
   0  10  -4  555.18   20.09
   0  10   4  559.45   21.95
   0  10  -5    3.68    1.61
   0  10   5    1.60    1.93
   0  10  -6  763.93   20.62
   0  10   6  731.88   21.47
   0  10  -7    7.04    1.80
   0  10   7    9.02    2.19
   1   0   0    2.36    1.61
  -1   0   0    0.30    0.70
  -1   0   0    1.06    1.40
   1   0  -1    0.33    1.17
  -1   0  -1    0.50    1.81
  -1   0   1    2.42    2.06
   1   0  -1   -2.76    2.33
  -1   0  -2   -0.12    2.27
   1   0  -2    1.60    3.70
   1   0  -2    2.11    2.86
  -1   0  -3   -0.55    4.16
   1   0  -3   -1.73    2.92
   1   0  -4   16.93    7.74
  -1   0  -4   21.23    8.71
   1   0  -5   -4.12    6.44
  -1   0  -5    0.54    3.28
  -1   0  -6   14.52    7.37
   1   0  -6   20.84   10.52
   1   0  -7   -4.19    6.88
  -1   0  -7    4.68    4.42
  -1   0  -8   16.65    7.20
   1   0  -8   27.48   11.90
  -1   0  -9   -0.29    1.81
  -1   0  -9    1.99    3.07
   1   0  -9    1.59    2.32
   1   0  -9    2.79    5.20
  -1   0 -10   30.83   18.99
   1   0 -10   10.78    5.23
   1   0 -10   17.98    8.74
  -1   0 -10   17.55    5.57
  -1   0 -10   22.34    6.99
  -1   0 -11   -3.16    3.49
   1   0 -11    4.42    4.23
  -1   0 -11   -1.87    3.05
  -1   0 -12   12.75    5.87
   1   0 -12   11.40    4.37
   1   0 -12   11.55    3.25
   1   0 -12    2.24    2.51
  -1   0 -12    2.40    3.42
   1   0 -13   -0.04    1.94
   1   0 -13   -2.92    2.29
  -1   0 -13    0.68    1.58
   1   0 -14    5.83    2.70
  -1   0 -14    1.50    1.45
   1   0 -14    3.70    1.89
  -1   0 -14   -1.16    2.38
   1  -1   0   -1.16    1.21
   1   1   0    0.03    3.09
  -1   1   0   -0.21    2.75
   1   1  -1   89.22   13.51
  -1  -1  -1   77.51    9.49
   1  -1  -1   91.84    9.28
  -1   1   1   77.66   11.67
  -1   1  -1   89.63   11.31
  -1   1   2    8.56    4.34
   1   1  -2   24.07    6.37
   1  -1  -2   11.00    5.34
  -1   1  -2   14.09    5.92
   1   1  -2   24.54    8.32
  -1  -1  -2    8.58    4.73
   1   1  -2   12.86    4.77
  -1   1  -3  113.92   18.40
   1   1  -3   88.24   13.21
   1  -1  -3   97.37   15.43
   1   1  -3  100.39   16.75
  -1  -1  -3  116.33   17.54
   1   1  -4 1455.81   62.77
  -1  -1  -4 1526.15   69.73
   1  -1  -4 1432.39   68.09
  -1   1  -4 1529.19   71.47
  -1   1  -5  130.44   23.68
   1   1  -5  144.70   22.99
   1  -1  -5  125.18   22.59
  -1  -1  -5  156.03   24.88
  -1   1  -6  169.44   28.66
   1   1  -6  226.62   31.43
   1  -1  -6  220.57   34.40
  -1  -1  -6  219.18   32.29
  -1  -1  -7   24.51   11.15
  -1   1  -7   36.13   16.82
   1  -1  -7   52.86   18.79
   1   1  -7   33.49   12.56
  -1  -1  -8   27.81   11.47
   1   1  -8   45.05   16.33
  -1   1  -8   80.95   23.05
   1  -1  -8   54.86   17.02
  -1   1  -9   47.75    8.58
   1  -1  -9   60.25   22.02
   1  -1  -9   32.42    7.96
  -1  -1  -9   39.68    9.07
  -1  -1  -9   42.15    8.40
  -1   1  -9   33.55    7.70
   1   1  -9   27.04    6.30
  -1  -1  -9   38.71   16.68
  -1   1  -9   24.03    5.44
   1   1  -9   30.57   14.77
  -1   1  -9   48.16   17.72
  -1   1 -10   49.23    9.34
  -1  -1 -10   60.90   12.07
   1  -1 -10   59.14   11.30
   1   1 -10   53.18    9.67
  -1   1  10   58.03   21.25
   1   1 -10   53.13    8.98
   1   1 -10   30.28   12.89
   1  -1 -10   34.23   18.10
  -1   1 -10   66.46   24.68
  -1  -1 -10   42.33   15.69
  -1   1 -10   43.09    7.71
  -1  -1 -10   58.84    9.82
  -1   1 -10   66.91   10.88
   1   1 -11   15.41    4.00
  -1  -1 -11   24.94    6.66
  -1   1 -11   23.95    5.05
  -1   1 -11   26.05    6.52
   1  -1 -11   19.43    5.72
  -1   1 -11   27.57    6.94
   1   1 -11   16.86    5.27
  -1  -1 -11   20.55    6.93
   1   1 -11   20.67    6.03
   1  -1 -12   25.99    7.62
   1   1 -12   17.80    5.00
  -1   1 -12   17.58    5.51
   1   1 -12   24.29    6.26
   1   1 -12   20.87    5.53
  -1  -1 -12   21.41    7.56
  -1  -1 -12   21.47    5.27
  -1   1 -12   20.82    5.60
   1   1 -13    8.41    3.40
   1  -1 -13    4.09    2.70
  -1  -1 -13    3.52    2.18
   1   1 -13    3.46    2.22
  -1   1 -13    2.59    1.60
   1  -1 -13   11.85    4.54
  -1  -1 -13    9.38    3.25
  -1   1 -14   12.27    3.36
   1   1 -14   13.13    3.37
  -1  -1 -14   16.97    4.12
   1  -1 -14    5.43    1.39
  -1   1 -14   13.64    3.70
   1  -1 -14   17.29    4.35
   1   2   0    2.77    4.24
  -1   2   0   -1.50    4.04
  -1   2   0    4.46    3.99
   1   2   0   -2.21    6.28
   1   2   0    0.86    2.35
  -1   2  -1  136.64   19.11
   1   2  -1  126.44   16.06
   1   2   1  133.25   18.68
  -1   2   1  126.49   12.39
  -1   2  -1  161.53   17.26
   1   2   1  121.19   14.93
   1   2  -1  131.77   13.37
   1   2  -1  111.95   16.88
  -1   2   1  123.85   18.59
  -1   2  -2   13.31    7.97
  -1   2   2    2.25    5.32
  -1  -2  -2   -0.58    3.62
   1   2  -2    7.21    4.85
  -1   2  -2    1.69    4.77
   1   2  -3  126.12   17.63
  -1   2  -3  124.36   17.96
  -1   2   3  147.11   23.53
   1   2  -3  123.25   19.90
  -1  -2  -3  116.20   18.73
   1   2  -3  108.56   13.95
   1  -2  -4   61.44   15.41
  -1   2   4   58.71   17.84
   1   2  -4   64.75   14.18
  -1  -2  -4   80.16   17.05
  -1   2  -4   76.04   17.40
   1   2  -4   58.30   11.37
   1   2  -4   71.23   16.91
   1  -2  -5   88.05   20.77
   1   2  -5   69.69   14.37
  -1   2   5   82.79   22.22
  -1   2  -5   70.93   16.54
   1   2  -5   89.05   21.54
  -1  -2  -5   70.73   17.47
   1   2  -5   83.90   17.73
  -1   2   6   39.23   16.87
   1   2  -6   44.07   14.41
   1   2  -6   26.17    8.91
  -1  -2  -6   28.42   11.63
   1  -2  -6   35.50   16.40
  -1   2  -6   33.60   12.46
   1  -2  -7   50.54   19.99
  -1  -2  -7   49.97   17.72
  -1   2  -7   55.80   18.36
   1   2  -7   53.48   16.67
   1   2  -7   60.23   14.56
  -1   2   7   72.01   23.93
  -1  -2  -8   25.20   14.33
  -1   2  -8    2.91    7.18
   1  -2  -8   22.00    7.64
   1   2  -8   20.07   10.03
   1   2  -8   42.45   16.33
  -1   2   8   39.71   16.46
  -1  -2  -8   12.38    4.34
   1  -2  -8   22.60   14.06
   1   2  -9   36.93    7.08
  -1   2  -9   29.36    6.66
  -1   2   9   33.11   14.86
  -1   2  -9   38.16   18.69
  -1  -2  -9   59.42   21.36
   1  -2  -9   51.62    8.64
  -1  -2  -9   37.33    9.66
   1  -2  -9   32.02    8.32
  -1   2  -9   26.91    5.90
   1  -2  -9   35.90   15.35
  -1   2  -9   47.32    8.94
  -1   2 -10   -0.15    8.93
   1   2 -10   12.23    2.39
   1  -2 -10   14.33    5.24
  -1  -2 -10   16.99    6.53
  -1  -2 -10   -8.56    9.17
  -1   2 -10   17.62    5.64
  -1   2  10    7.90    8.34
   1  -2 -10    9.10    4.21
  -1  -2 -10   13.31    5.84
  -1   2 -10   14.32    4.41
  -1   2 -10    8.78    3.03
  -1  -2 -11   50.99    9.70
   1   2 -11   37.71    7.26
  -1  -2 -11   44.81    9.98
  -1   2 -11   43.78    8.25
   1   2 -11   29.23    6.68
   1  -2 -11   32.24    7.27
   1  -2 -11   44.02    9.93
  -1   2 -11   48.83    8.31
  -1  -2 -12    4.63    4.20
   1   2 -12   -2.58    2.24
  -1  -2 -12    4.63    3.11
   1  -2 -12    5.46    4.90
  -1   2 -12    7.47    4.23
   1   2 -12    0.02    2.07
  -1  -2 -13   34.34    7.38
   1  -2 -13   28.37    5.35
   1  -2 -13   31.77    7.03
  -1   2 -13   38.19    7.12
  -1  -2 -13   39.69    7.82
   1   2 -13   48.43    8.03
  -1   2 -13   33.71    5.77
  -1   2 -14    2.76    2.72
   1  -2 -14    2.93    2.27
  -1  -2 -14   -2.25    1.97
   1   2 -14   -1.53    1.92
   1   3   0   -0.37    2.58
   1   3   0    1.60    1.97
   1   3   0    6.79    8.79
  -1   3   0   -0.79    3.28
  -1   3   0   -8.98    6.65
  -1   3  -1  119.20   18.10
   1   3  -1  102.93   14.72
  -1   3   1  104.90   13.79
   1   3   1   98.83   13.01
  -1   3  -1   94.92   17.95
   1   3  -1  106.45   18.58
   1   3  -1   92.30   14.70
   1   3   1  101.31   16.69
  -1   3   1  101.75   19.30
   1   3   1  112.12   20.32
   1   3   2  214.70   27.37
   1   3   2  210.25   25.52
   1   3  -2  242.83   24.48
  -1   3  -2  265.48   28.76
  -1   3  -2  236.50   29.06
  -1   3   2  216.38   21.68
   1   3  -2  248.40   31.55
  -1   3   2  228.58   29.12
   1   3   3  100.22   19.59
  -1   3   3  101.13   20.54
  -1   3  -3  134.92   22.88
  -1   3  -3  124.18   21.87
   1   3  -3  119.46   18.83
   1   3  -3  121.49   21.91
   1   3  -4  540.27   44.35
  -1  -3  -4  557.53   51.18
  -1   3   4  541.59   52.28
  -1   3  -4  438.14   41.77
   1   3  -4  487.67   46.45
   1   3  -5   33.93   13.68
  -1   3  -5   22.31    6.50
   1   3  -5   28.74    8.31
   1   3  -5   33.99   11.40
  -1  -3  -5   24.85   12.90
  -1   3   5   56.02   19.16
  -1   3   6   23.08   15.82
  -1   3  -6   14.08   10.86
   1   3  -6   18.42    7.13
   1   3  -6   19.95    8.57
  -1  -3  -6   28.69   11.83
  -1  -3  -7   15.14    9.68
   1   3  -7   22.94   10.93
  -1   3   7   21.87   15.28
  -1   3  -7   14.27    8.28
  -1   3  -8   23.26    6.50
  -1   3  -8   32.14   16.08
  -1  -3  -8   19.17   15.40
   1  -3  -8   22.20    6.88
   1  -3  -8   25.67    6.04
   1   3  -8   21.08    5.05
  -1   3  -8   21.16    5.88
  -1   3  -8   23.90    5.88
  -1   3   8   46.39   17.88
  -1  -3  -8   25.01    6.63
   1   3  -9   17.46    5.47
   1   3  -9   22.97    6.86
   1  -3  -9   23.30    7.08
   1   3   9   20.65   15.78
  -1  -3  -9   32.74   16.72
  -1   3   9    1.64    7.19
  -1   3  -9   28.70    7.02
  -1   3  -9   18.12    5.70
  -1   3  -9   21.71   13.46
  -1  -3  -9   17.01    6.17
  -1   3  -9   17.84    5.71
   1  -3  -9   20.60    7.36
  -1   3 -10   33.97    7.76
   1  -3 -10   24.61    6.27
  -1  -3 -10   38.22    9.52
   1   3 -10   29.10    6.81
   1  -3 -10   36.99    8.79
   1   3 -10   35.49    7.69
  -1  -3 -11   12.77    4.81
   1   3 -11   14.18    5.17
   1  -3 -11   23.33    6.80
  -1  -3 -11    6.48    4.19
   1   3 -11   26.29    7.84
  -1   3 -11   19.89    6.07
   1  -3 -11   25.42    7.08
   1   3 -12   48.93    8.20
  -1   3 -12   44.01    7.22
  -1  -3 -12   58.32    9.42
   1  -3 -12   53.25    9.84
   1  -3 -12   51.05    8.60
  -1  -3 -12   52.99    9.45
   1   3 -13   27.38    6.03
  -1  -3 -13   22.31    5.02
  -1   3 -13   22.41    5.21
  -1  -3 -13   18.23    4.88
   1  -3 -13   18.17    5.28
  -1  -3 -14    1.87    1.34
   1  -3 -14    2.71    2.10
   1   3 -14    7.62    3.06
   1  -3 -14    0.07    1.26
  -1   3 -14    6.17    2.64
   1   4   0   -1.61    6.26
   1   4   0    0.94    2.51
  -1   4   0   -0.44    4.96
   1   4   0   -2.09    2.00
  -1   4   0    6.03    5.05
  -1   4  -1  493.79   43.20
  -1   4   1  508.17   35.19
   1   4   1  636.38   52.48
  -1   4  -1  546.87   42.76
   1   4  -1  436.14   34.44
   1   4  -1  545.69   46.60
   1   4   1  585.99   46.73
   1   4   1  491.43   29.75
  -1   4   1  569.53   48.17
  -1   4  -2   37.35   13.05
  -1   4  -2   77.30   17.61
   1   4  -2   56.75   16.56
   1   4   2   52.15   17.83
   1   4   2   44.58    8.72
  -1   4   2   47.44   11.96
   1   4   2   46.64   13.23
   1   4  -2   46.87   12.16
  -1   4   2   54.16   15.19
   1   4  -3  550.24   48.12
   1   4   3  507.81   48.33
  -1   4  -3  567.81   52.03
  -1   4   3  518.97   40.64
  -1   4   3  512.07   49.70
   1   4  -3  467.34   46.63
   1   4   3  547.38   48.87
  -1   4   4   16.46    7.11
   1   4   4   24.71    9.99
  -1   4  -4   11.21    8.27
   1   4  -4   21.60   11.54
   1   4   4   25.86   14.85
  -1   4  -4   14.46    7.18
   1   4  -4    6.41    6.58
  -1   4   4   29.01   12.99
   1   4   5  404.69   51.18
  -1   4   5  387.85   51.28
   1   4  -5  368.36   43.67
  -1   4  -5  359.86   46.08
   1   4  -5  348.82   43.98
   1   4  -6   49.19   17.80
   1   4  -6   86.95   23.64
  -1   4  -6   58.79   19.46
  -1   4   6   57.01   21.90
   1   4   6   57.86   18.59
  -1   4   7  279.12   49.16
   1   4  -7  209.00   17.74
   1   4   7  311.73   52.27
  -1   4  -7  239.71   41.30
  -1   4  -7  211.76   17.81
   1  -4  -7  198.02   19.99
  -1  -4  -7  187.52   19.30
   1   4   7  210.24   20.85
   1   4  -7  203.20   17.84
  -1   4  -7  209.74   18.67
   1   4  -7  247.38   20.10
  -1   4  -8   24.20   14.72
   1   4  -8   32.68    7.42
  -1   4  -8   24.31    6.56
   1  -4  -8   23.74    5.77
  -1   4   8   31.12   13.64
   1   4   8   22.77    6.63
   1   4  -8   55.27   10.62
   1   4   8   27.99   16.87
  -1   4  -8   27.06    7.40
   1  -4  -8   32.24    8.09
  -1  -4  -8   28.30    7.88
   1  -4  -9  177.28   17.57
  -1   4  -9  157.37   36.52
   1  -4  -9  153.89   17.48
  -1  -4  -9  167.67   18.44
   1   4  -9  167.72   16.14
  -1   4  -9  175.88   17.30
   1   4  -9  209.55   19.78
  -1   4  -9  182.61   17.54
  -1   4 -10    0.15    1.88
   1  -4 -10   -3.17    4.39
   1   4 -10   -2.65    2.55
   1  -4 -10    0.69    2.83
  -1  -4 -10    1.01    3.46
   1  -4 -11  116.99   14.08
   1   4 -11  125.45   12.84
  -1   4 -11  120.78   12.54
  -1  -4 -11  104.03   13.51
  -1   4 -11  123.17   12.23
  -1  -4 -11  127.31   15.17
   1  -4 -11  109.17   13.10
   1  -4 -12   -2.04    2.27
  -1   4 -12    3.36    1.86
   1   4 -12    5.90    3.12
  -1  -4 -12    4.17    3.16
  -1  -4 -12    3.41    2.91
  -1   4 -12    4.02    3.24
   1  -4 -12    9.72    4.91
  -1  -4 -13   91.88   10.04
  -1  -4 -13   89.25    9.52
   1   4 -13   98.09    9.19
  -1   4 -13   89.59    8.60
   1  -4 -13   87.69    9.37
   1   4 -14    0.74    1.08
  -1   4 -14    1.36    1.44
   1  -4 -14    0.81    1.74
  -1   5   0    5.85    6.85
  -1   5   0   -2.73    5.93
   1   5   0   -1.66    4.08
   1   5   0   -4.73    3.64
   1   5  -1    7.87    5.22
   1   5   1    6.14    6.94
  -1   5  -1   -0.02    3.32
   1   5   1    1.44    7.67
  -1   5   1    9.31    6.74
  -1   5  -1    3.23    5.36
   1   5  -1    2.49    4.24
   1   5   2   64.39   18.13
  -1   5  -2   48.94   14.56
   1   5   2   41.99   14.66
   1   5  -2   76.48   19.39
  -1   5   2   44.97   13.35
   1   5  -2   33.54   11.16
  -1   5  -2   48.68   15.36
  -1   5   3   29.06   15.27
   1   5   3    8.71    4.10
  -1   5  -3   16.62    6.71
   1   5  -3    5.34    5.85
   1   5   3   13.15    8.24
   1   5  -3   17.22    8.46
  -1   5  -4   -5.48    6.65
   1   5  -4   -6.34    7.78
  -1   5  -4   -2.65    9.29
   1   5   4   -4.44    5.46
   1   5  -4    0.26    3.46
  -1   5   4   -1.76    7.84
   1   5   4   -1.80    4.38
  -1   5   5    8.21    7.27
   1   5  -5   12.91    8.61
   1   5   5    6.82    8.70
   1   5  -5    7.08    6.67
   1   5   5   22.35   12.99
  -1   5  -5    4.84    7.56
   1  -5  -6    4.98    2.26
  -1   5  -6    3.22    1.61
   1   5  -6   -1.88    9.90
   1   5   6   13.01    5.23
   1   5  -6    9.74    3.37
   1   5   6   18.83   14.70
   1   5   6    9.68    8.76
   1  -5  -6    1.77    3.07
  -1   5   6   -6.00   12.00
  -1   5   6    6.30    3.19
  -1   5  -6   -0.29    3.48
   1   5  -6   10.34    4.59
  -1   5  -6    8.89    2.94
   1  -5  -7   23.49    6.45
  -1   5  -7    8.21   10.00
  -1   5   7   51.52   23.76
  -1  -5  -7   30.29    7.90
   1   5   7   45.08   20.81
   1   5  -7   22.48    5.70
  -1   5  -7   30.36    6.78
   1   5  -7   35.00    7.31
  -1   5  -7   36.74    8.08
  -1   5   7   36.05    9.26
   1   5   7   27.30    8.54
  -1   5  -8    3.38    2.88
  -1   5  -8    2.68    4.66
  -1  -5  -8    2.93    3.86
   1  -5  -8   -5.86    5.71
   1   5   8   -2.27    3.10
   1   5  -8    4.54    3.89
  -1   5   8    2.17    3.51
   1  -5  -8   -2.28    2.61
  -1   5  -8    6.00    4.78
  -1  -5  -9   25.46    7.07
   1   5   9   27.30    7.02
   1  -5  -9   17.66    5.38
   1  -5  -9   18.34    6.07
  -1   5  -9   21.94    5.84
  -1   5  -9   32.30    7.16
   1   5  -9   17.81    5.03
  -1   5  -9   16.70    4.66
   1  -5 -10   16.27    4.82
  -1   5 -10   13.72    4.24
   1   5 -10   20.53    6.00
  -1  -5 -10   19.51    6.64
   1  -5 -10   17.09    5.37
  -1   5 -10   13.35    4.41
  -1   5 -11   27.22    5.28
  -1  -5 -11   28.27    7.43
  -1  -5 -11   23.78    6.54
   1  -5 -11   25.73    6.40
  -1   5 -11   22.88    5.35
   1   5 -11   23.22    5.06
  -1   5 -12    4.72    1.77
  -1  -5 -12    4.15    2.22
   1  -5 -12    1.20    2.19
  -1  -5 -12    2.93    2.67
   1   5 -12    5.48    2.08
   1  -5 -12    6.44    2.39
  -1   5 -13   34.45    4.72
  -1  -5 -13   36.82    5.64
   1  -5 -13   38.63    5.43
   1   5 -13   37.73    4.94
   1   6   0   -4.58    2.31
  -1   6   0    3.23    4.74
   1   6   0    2.73    5.24
   1   6   1  358.72   41.64
  -1   6  -1  385.38   45.55
   1   6  -1  370.68   44.98
   1   6   1  346.07   41.99
  -1   6   1  357.14   43.87
   1   6  -2    8.73    8.37
   1   6   2   -3.89    8.64
   1   6   2   -2.92    4.54
  -1   6  -2    5.74    5.77
  -1   6   2    3.03    3.00
  -1  -6  -3  358.27   26.32
  -1   6  -3  330.24   45.16
   1   6   3  395.83   48.84
   1  -6  -3  373.72   27.00
   1   6   3  327.51   23.79
  -1   6   3  370.32   47.24
   1   6  -3  409.90   48.07
  -1   6  -3  354.65   22.88
  -1   6   3  332.05   23.32
   1   6   3  453.19   53.68
   1   6  -3  404.98   47.17
  -1   6  -4    2.42    3.05
  -1   6   4    3.52    2.84
  -1   6   4   -1.71    6.01
  -1  -6  -4   13.93    5.81
   1  -6  -4    2.05    2.63
   1   6  -4    4.03    4.98
  -1   6  -4   -7.33    6.14
   1   6   4    7.19    3.74
   1   6  -4    7.91    3.56
   1   6   4   11.62   10.46
   1   6   4    1.34    7.45
   1   6  -4    0.30    4.34
  -1   6  -5  371.01   24.13
   1  -6  -5  338.97   25.71
   1   6  -5  349.57   22.94
  -1  -6  -5  381.67   28.42
  -1   6  -5  324.35   46.09
  -1   6   5  360.63   53.65
   1   6   5  337.20   25.34
   1   6   5  340.42   49.91
   1   6   5  385.79   56.28
   1   6  -5  298.33   43.68
  -1   6   5  341.54   24.77
  -1   6   6   -8.47    9.27
   1   6  -6   12.39    4.59
   1   6   6    5.66    3.48
  -1   6  -6   11.54    4.23
   1   6  -6    7.31    3.21
   1  -6  -6    7.01    3.55
  -1   6   6    9.23    5.05
   1   6   6   32.34   17.63
  -1   6  -6    7.02    2.99
   1   6  -6   17.68   11.03
  -1   6  -6   15.45   10.63
   1   6   7  418.49   29.11
   1   6  -7  382.34   23.47
   1   6  -7  354.19   22.12
  -1   6   7  375.03   26.15
  -1   6  -7  394.99   24.34
  -1   6  -7  383.09   24.93
  -1   6  -8    4.19    2.23
  -1   6  -8   13.88    4.69
   1   6  -8    9.11    3.25
   1   6  -8   13.30    5.03
  -1   6  -8    0.94    2.44
  -1   6   8   14.85    5.68
   1  -6  -8    4.34    2.83
   1   6   8    7.70    5.10
   1  -6  -8    3.44    2.14
  -1   6  -9  384.20   24.05
  -1   6   9  374.37   25.94
   1  -6  -9  352.30   24.59
   1   6  -9  353.66   22.34
   1   6   9  350.29   25.47
   1  -6  -9  338.02   23.55
   1   6  -9  292.45   17.92
  -1   6  -9  336.88   20.46
  -1   6  -9  328.08   20.87
  -1   6 -10    2.76    2.01
   1   6  10    1.42    1.68
   1   6 -10    0.65    1.81
  -1   6 -10    0.98    1.78
   1   6 -10    1.15    0.87
   1  -6 -10    2.79    3.47
   1  -6 -10    0.64    2.25
  -1  -6 -10    0.36    2.30
  -1  -6 -11  282.17   20.11
  -1  -6 -11  272.52   17.78
  -1   6 -11  232.71   13.04
   1  -6 -11  250.12   16.99
  -1   6 -11  259.38   14.80
   1   6 -11  265.72   15.40
   1  -6 -12    0.35    1.33
   1  -6 -12    1.18    1.50
  -1  -6 -12   -0.87    2.06
  -1   6 -12    2.23    1.38
   1   6 -12    0.55    1.15
   1   7   0    4.46    3.10
  -1  -7   0    1.86    2.80
  -1   7   0    1.78    2.00
  -1   7   0    0.71    2.31
   1  -7   0    1.36    2.77
   1   7   0    0.76    2.70
   1   7   0   -2.94    2.45
  -1   7  -1   39.65   15.20
  -1  -7   1   37.98    8.48
   1  -7   1   50.26   10.57
   1   7  -1   36.18   13.24
   1   7   1   40.90    8.15
  -1  -7  -1   44.13    9.42
   1   7  -1   47.10    7.71
   1   7   1   45.74    7.89
  -1   7  -1   44.24    8.06
   1  -7  -1   45.45    9.62
  -1   7   1   41.55    8.31
  -1   7   1   53.69   17.85
   1   7   1   50.74   24.70
  -1   7  -2    1.09    1.52
   1  -7   2   -1.01    1.93
   1  -7  -2   -0.93    2.60
   1   7   2    4.60    3.11
  -1  -7  -2   -1.62    3.29
  -1   7   2   -0.72    7.09
   1   7  -2    8.42    7.12
   1   7  -2   -0.68    2.05
   1   7   2    4.18    5.16
  -1   7  -2   -8.24    7.07
   1   7   2    5.30    3.21
   1   7   2   -4.74    5.42
  -1   7   2    5.95    3.94
   1   7  -3   29.05    6.24
  -1   7   3   32.46    7.83
  -1   7  -3   31.26    6.48
  -1  -7  -3   34.25    9.13
  -1   7  -3   27.10   12.17
   1   7   3   30.58    7.41
   1  -7  -3   35.73    8.87
   1   7   3   13.67    9.44
  -1   7   3    9.10    7.88
   1   7  -3   39.63   15.16
   1   7  -3   36.86    6.96
   1  -7   3   35.86    8.79
  -1   7   4  160.47   16.67
   1   7  -4  167.96   15.02
  -1   7  -4  157.04   15.09
  -1   7   4  142.08   31.84
  -1   7  -4  122.53   28.26
   1   7  -4  150.75   14.43
   1   7   4  126.98   30.76
   1  -7  -4  154.44   17.51
   1   7  -4  123.83   27.31
   1   7   4  163.54   16.68
  -1   7  -4  172.02   15.74
  -1  -7  -4  166.17   17.74
   1   7   5   27.54    6.32
  -1   7  -5   36.36    7.04
   1   7  -5   30.97    6.33
  -1   7   5   35.67    8.13
   1  -7  -5   37.10    8.76
   1   7  -5   28.13    5.85
  -1   7  -5   40.18    7.75
   1   7  -6   14.27    4.18
  -1   7  -6   24.33    5.78
   1   7   6   23.50    6.79
   1  -7  -6   20.15    6.58
  -1   7  -6   17.11    4.70
  -1   7   6   14.67    5.41
   1   7  -6   15.76    4.12
   1   7  -7   32.61    6.17
   1   7  -7   24.40    5.66
  -1   7  -7   24.97    5.76
  -1   7   7   30.28    7.74
  -1   7  -7   30.36    6.28
   1   7   7   32.55    7.83
   1   7  -8    4.89    2.11
   1   7   8    5.40    2.98
   1  -7  -8    1.50    4.00
   1   7  -8    5.70    3.20
  -1   7   8    4.01    2.49
  -1   7  -8    5.01    2.84
  -1   7  -8    5.07    3.20
   1   7  -9    7.35    2.72
   1  -7  -9   10.40    4.08
  -1   7   9    9.39    3.26
  -1   7  -9    1.36    1.77
  -1   7  -9    7.87    2.52
   1   7   9    1.74    1.53
   1   7  -9    9.44    3.46
   1  -7 -10   25.86    5.07
  -1   7 -10   30.83    4.51
   1   7 -10   32.19    5.01
   1   7 -10   25.12    4.11
   1   7  10   29.86    5.34
   1  -7 -11    5.06    2.25
  -1  -7 -11    3.92    2.62
  -1   7 -11    3.47    1.47
   1   7 -11    2.83    1.29
  -1   8   0   -0.80    2.07
   1   8   0   -0.56    1.71
  -1   8   0   -0.74    2.01
   1  -8   0    1.27    2.62
   1   8   0   -0.28    1.62
  -1  -8   0    2.15    2.83
  -1   8  -1  738.34   29.56
   1   8  -1  768.06   31.58
   1  -8  -1  758.27   36.67
  -1  -8   1  634.29   32.32
  -1   8   1  752.08   35.25
  -1   8  -1  691.40   32.38
   1   8   1  732.34   30.98
  -1  -8  -1  733.60   35.58
   1  -8   1  757.19   36.95
   1   8   1  701.36   32.94
  -1   8  -2   10.50    3.86
   1  -8  -2   12.04    5.01
   1   8   2    5.84    3.47
  -1  -8  -2    6.81    4.94
  -1   8  -2    6.15    3.08
   1  -8   2    4.65    3.79
   1   8  -2    3.82    3.09
  -1  -8   2    1.88    2.06
   1  -8   3  638.30   33.74
  -1   8  -3  697.41   29.84
  -1   8   3  676.58   32.90
   1  -8  -3  685.28   35.56
  -1   8  -3  671.96   29.31
   1   8  -3  694.04   29.77
   1   8   3  637.10   31.57
  -1  -8  -3  682.46   34.69
  -1   8  -4    8.23    3.56
   1   8  -4    7.54    3.23
  -1   8   4   12.59    5.01
   1   8   4    6.27    3.79
   1   8  -4   12.46    4.52
   1  -8  -4   14.77    6.05
   1   8   5  598.03   30.15
  -1   8  -5  590.57   26.33
  -1   8   5  640.63   32.14
   1   8  -5  593.03   26.58
  -1   8  -5  591.23   27.11
   1  -8  -5  647.92   33.34
   1   8   6    2.49    2.56
  -1   8  -6    0.98    2.63
  -1   8   6   -6.75    4.86
   1   8  -6    2.28    2.71
  -1   8  -6    2.42    2.15
  -1   8  -7  455.50   21.53
  -1   8   7  510.70   26.34
   1   8  -7  470.29   22.02
   1   8   7  483.60   25.46
  -1   8  -7  440.71   21.43
   1  -8  -7  459.76   25.13
  -1   8  -7  510.09   23.44
  -1   8  -8   -5.92    3.33
   1  -8  -8   -4.00    2.51
   1   8  -8   -0.22    1.55
   1   8   8   -1.30    1.86
  -1   8  -8   -1.96    1.72
  -1   8   8    1.00    1.55
   1   8   9  312.17   16.44
  -1   8  -9  309.66   14.23
   1   8  -9  296.39   13.72
   1  -8  -9  294.10   15.31
  -1   8   9  321.89   16.43
  -1   8 -10    9.51    2.31
   1   8 -10    5.79    1.60
   1   8  10    7.39    1.96
   1   9   0    0.09    1.51
   1  -9   0   -1.65    3.59
  -1   9   0    1.35    1.70
  -1  -9   0    0.57    1.93
   1   9   0   -1.58    2.59
  -1   9  -1    6.24    3.57
  -1  -9  -1    5.32    3.14
  -1   9   1    7.74    3.61
   1  -9   1    4.17    2.86
   1   9   1    8.70    3.34
   1   9  -1    9.67    3.81
  -1   9  -1    7.68    2.70
   1   9   1    6.13    3.29
   1  -9  -1    6.57    3.87
  -1  -9   1    0.55    2.56
  -1   9  -2   72.61    8.52
   1  -9  -2   65.64   10.06
   1   9  -2   69.63    8.58
  -1   9   2   75.63   10.37
   1   9   2   82.06   10.63
   1  -9   2   69.41   10.35
  -1   9  -3    2.51    2.91
   1   9   3    5.49    3.20
   1  -9  -3    6.33    2.43
   1   9  -3    3.49    2.70
  -1   9   3    3.13    2.80
  -1   9  -3    2.25    1.62
   1  -9   3   -0.10    2.90
   1  -9  -4    2.72    4.01
   1   9   4    2.30    2.43
  -1   9  -4    2.63    2.26
  -1   9   4   -2.21    2.36
  -1   9  -4    4.74    3.05
   1   9  -4    2.08    1.83
  -1   9   5   10.57    3.17
   1   9   5   14.70    4.39
   1   9  -5   16.18    4.03
  -1   9  -5   14.12    3.76
  -1   9  -5   12.85    3.59
  -1   9   6   68.64    8.97
  -1   9  -6   63.64    7.18
   1   9   6   62.67    8.38
   1   9  -6   65.91    7.69
  -1   9  -6   63.24    7.38
   1   9  -7    7.30    2.47
   1   9   7    6.01    2.96
   1  -9  -7    6.83    2.75
  -1   9   7    2.06    2.23
  -1   9  -7    6.92    2.42
   1   9  -8   26.18    3.78
  -1   9   8   31.34    4.76
  -1   9  -8   29.69    4.10
   1  -9  -8   21.43    3.61
   1   9   8   33.39    5.06
  -1   9  -9    7.00    1.77
   1   9   9    1.33    0.71
   1 -10   0   -0.76    1.44
  -1  10   0    1.86    1.38
   1  10   0   -1.34    1.67
   1  10  -1  486.00   19.50
   1  10   1  446.59   20.29
  -1  10   1  522.97   22.74
   1 -10  -1  496.18   22.95
   1 -10   1  473.16   22.33
   1 -10  -2    2.84    1.79
   1  10   2    3.51    2.12
   1  10  -2   -0.52    1.21
  -1  10   2    2.50    2.51
  -1  10  -2    1.51    1.49
   1 -10   2    5.79    3.23
   1  10  -3  466.31   19.31
  -1  10   3  454.32   20.63
  -1  10  -3  434.77   17.83
   1  10   3  435.81   19.77
  -1  10   4    2.66    2.35
   1  10   4    1.56    1.87
  -1  10  -4   -0.08    1.17
   1  10  -4    5.04    2.34
   1  10  -5  477.15   17.77
   1  10   5  443.72   17.81
  -1  10  -5  458.27   16.77
  -1  10   5  461.14   18.49
  -1  10   6    0.82    0.91
  -1  10  -6    0.60    0.91
   1  10   6   -1.12    0.95
   1 -10  -6    0.39    1.06
   1  10  -6   -0.32    1.00
   1  10   7  332.41   12.35
   1  10  -7  334.62   11.53
  -1  10   7  336.72   12.62
  -1  10  -7  339.28   11.51
  -2   0   0 7082.82   78.26
   2   0   0 5779.25  101.19
  -2   0  -1    0.50    3.37
  -2   0   1    0.78    1.75
   2   0  -1   -2.91    3.02
  -2   0   2 2480.02   69.81
  -2   0  -2 2907.67   80.23
   2   0  -2 2559.04   89.90
   2   0  -2 2795.05   71.24
   2   0  -3    0.44    5.77
   2   0  -3   -6.36    6.91
   2   0  -3   -2.48    5.01
  -2   0   3   -4.65    5.41
  -2   0  -3    0.60    3.42
  -2   0   4 5180.87  133.69
  -2   0  -4 5448.30  138.22
   2   0  -4 5176.26  126.72
   2   0  -5    2.20    4.45
  -2   0  -5    6.60    6.54
  -2   0  -6 6457.58  176.38
   2   0  -6 7007.29  200.91
   2   0  -7    6.25    8.71
  -2   0  -7   -4.18    3.88
   2   0  -8 3360.21  157.66
  -2   0  -8 3308.82  145.16
  -2   0  -9   -3.37    2.76
   2   0  -9   -4.09    4.53
  -2   0  -9   12.81   12.72
   2   0  -9    0.65    1.78
   2   0  -9    0.89    2.08
   2   0  -9  -15.65   10.13
  -2   0  -9   -0.71    2.72
   2   0 -10 2493.19   73.79
  -2   0 -10 2505.83   65.48
  -2   0 -10 2382.60  140.30
  -2   0 -10 2605.14   75.49
   2   0 -10 2221.02   66.51
   2   0 -10 2530.45   71.62
  -2   0 -11    1.75    2.95
   2   0 -11   -2.07    4.11
   2   0 -11   -3.17    1.96
  -2   0 -11    0.75    2.29
   2   0 -12 2352.60   64.85
  -2   0 -12 2581.73   64.93
   2   0 -12 2504.00   62.75
   2   0 -12 2323.80   59.73
   2   0 -13    0.39    2.85
  -2   0 -13    0.01    2.56
   2   0 -13    5.56    3.46
  -2   0 -14  877.79   28.77
  -2   0 -14  868.52   28.08
   2   0 -14  875.54   28.31
  -2   1   0   44.26    9.77
   2  -1   0   45.63    5.09
  -2  -1   0   55.40    6.87
   2  -1   0   41.12    9.18
   2   1   0   50.71   11.90
   2  -1  -1   -3.43    4.25
   2  -1  -1    2.78    4.01
  -2   1  -1    1.37    2.69
  -2   1   1    3.46    4.94
   2   1  -1    2.94    4.49
  -2  -1  -1    8.25    5.06
  -2   1  -1    0.42    4.39
   2   1  -2   50.19   12.05
   2  -1  -2   42.56    9.97
  -2  -1  -2   51.29   10.77
  -2   1  -2   44.67   10.57
   2   1  -2   27.22   10.85
  -2   1   2   44.31   11.53
   2   1  -3    4.67    2.46
   2   1  -3    7.66    6.68
  -2  -1   3    4.11    4.21
  -2   1   3    6.12    7.56
   2   1  -3    2.88    4.57
  -2  -1  -3    6.87    5.26
  -2   1  -3   12.88    6.77
   2   1  -3   10.70    6.59
  -2   1  -4   45.18   14.12
   2   1  -4   49.50   13.51
   2   1  -4   57.44   13.20
  -2   1   4   51.15   15.68
  -2  -1  -4   54.71   15.16
   2   1  -4   48.91   13.73
   2   1  -5    5.81    6.00
   2   1  -5    5.61    5.28
   2   1  -5    4.91    7.76
  -2   1  -5    8.48    5.41
   2  -1  -5    5.92    5.07
  -2  -1  -5    4.80    6.68
  -2   1   5   11.90   11.48
   2   1  -6   30.09   11.67
  -2   1  -6   32.12   14.73
   2  -1  -6   23.21    8.77
  -2  -1  -6   31.35   12.84
   2   1  -6   29.68   10.97
  -2   1   6   29.09   12.00
  -2  -1  -7   -1.07    4.77
   2   1  -7    1.93    3.81
  -2   1   7    5.49   11.29
   2  -1  -7  -15.19   17.68
   2   1  -7   -1.35    2.50
  -2   1  -7    6.07    4.11
  -2   1  -8    2.92    2.26
   2  -1  -8   -4.18    6.94
  -2  -1  -8    5.79    3.28
   2  -1  -8    6.58    2.60
   2   1  -8    8.17    6.43
  -2  -1  -8   10.98    9.91
  -2   1  -8   14.74    9.14
  -2  -1  -8    9.99    4.72
   2  -1  -9    6.94    4.56
  -2   1  -9    5.13    6.80
  -2  -1  -9   -0.24    5.25
  -2   1  -9    4.26    2.67
  -2  -1  -9    5.71    3.96
  -2  -1  -9   14.71    6.14
   2  -1  -9   10.97    6.28
  -2   1  -9    0.50    2.55
   2   1  -9    6.15    5.89
   2   1  -9    3.03    3.39
   2   1  -9    5.05    4.50
   2   1  -9    5.02    4.01
  -2   1 -10  -19.69   12.97
  -2   1 -10    5.93    4.11
  -2   1 -10   -2.85    4.57
   2   1 -10   -1.01    3.03
   2   1 -10   -0.31    2.10
  -2  -1 -10    0.05    2.81
   2  -1 -10   -2.02    3.59
   2   1 -10   -4.21    4.17
  -2  -1 -10  -21.42   13.30
  -2  -1 -10   -0.99    2.58
   2   1 -11   -2.16    4.63
  -2  -1 -11   -1.96    2.45
   2   1 -11    1.97    2.72
   2  -1 -11    1.61    4.29
  -2  -1 -11    2.57    2.98
  -2   1 -11    1.59    2.12
   2   1 -11    1.39    2.65
   2   1 -12   -0.86    4.04
  -2  -1 -12    1.03    3.11
  -2   1 -12    3.76    3.57
  -2  -1 -12    5.34    2.90
   2  -1 -12   -2.37    3.50
   2   1 -12    1.61    2.46
   2  -1 -13    6.00    3.67
   2   1 -13    5.46    2.64
  -2  -1 -13    5.28    2.88
  -2   1 -13    3.06    2.21
   2  -1 -13   -3.23    4.51
   2   1 -13    2.48    2.06
  -2  -1 -14    4.69    2.20
  -2   1 -14    1.29    1.17
   2  -1 -14    5.57    3.09
   2   1 -14    0.32    1.17
  -2   1 -14    0.65    1.82
  -2  -1 -14    3.13    1.88
   2  -1 -14   -0.30    2.20
   2   2   0 7212.39  155.16
  -2   2   0 7521.95  152.89
   2  -2   0 7249.67  104.67
   2   2   0 7141.77  133.24
   2   2   1   -0.69    5.73
   2  -2  -1    0.62    1.88
   2   2  -1   -2.66    4.90
  -2  -2  -1    5.32    4.98
  -2   2   1    1.69    5.86
  -2   2  -1    1.32    3.77
   2   2  -1   -1.30    4.98
   2  -2  -1    5.01    4.79
  -2   2  -2 4519.54  115.94
   2   2  -2 4690.78   77.16
  -2   2   2 4660.08  138.02
  -2  -2  -2 4718.23  109.91
   2   2  -2 4871.13  137.35
   2   2  -2 4546.74  125.52
   2   2  -3    8.68    7.05
  -2  -2  -3   -1.98    4.04
   2   2  -3   -1.08    3.06
   2   2  -3    7.56    5.45
  -2   2   3    2.03    5.19
  -2   2  -3    1.04    6.66
  -2   2   4 5154.45  161.68
   2   2  -4 5220.83  146.88
  -2   2  -4 5069.05  142.52
  -2  -2  -4 5160.36  137.62
   2   2  -4 4765.80  118.08
   2   2  -4 4669.05  110.85
   2   2  -5   14.74    6.19
  -2   2  -5   19.20   11.24
   2   2  -5   12.67    7.50
  -2  -2  -5    6.52    4.40
   2   2  -5    7.02    4.01
  -2   2   5    5.26    4.55
  -2   2  -6 3424.12  136.32
   2   2  -6 3236.30  111.26
  -2   2   6 3918.99  168.94
   2   2  -6 3370.17  119.74
  -2  -2  -6 3790.22  142.79
  -2   2  -7   -6.90    9.34
  -2  -2  -7    5.59   10.16
  -2   2   7    6.86    9.61
   2   2  -7   -0.97    3.55
   2  -2  -8 2183.25   75.96
  -2  -2  -8 2180.81   73.89
   2   2  -8 2132.38  101.56
   2  -2  -8 2090.30   55.76
  -2  -2  -8 2429.79  129.61
  -2   2  -8 2359.82  130.80
   2   2  -8 2074.57   64.14
   2  -2  -8 1856.99   62.30
  -2   2   8 2613.22  151.66
   2   2  -8 2118.14   63.62
   2   2  -8 2147.26   56.54
  -2   2  -8 2212.20   59.52
  -2   2  -9    3.99    2.97
  -2  -2  -9    6.75    3.19
  -2  -2  -9  -15.40   11.05
   2   2  -9   11.99    8.01
   2  -2  -9   13.16    6.53
   2  -2  -9    4.43    4.16
  -2  -2  -9    6.74    5.97
   2   2  -9    0.43    3.47
  -2   2  -9   -1.06   10.12
   2   2  -9    8.11    6.68
   2   2  -9    4.63    3.23
   2  -2  -9   11.04    7.25
  -2   2   9    3.52    4.51
  -2   2 -10 1616.44   52.27
  -2  -2 -10 1627.50   55.22
   2   2 -10 1612.91   51.06
   2  -2 -10 1559.06   61.39
   2   2 -10 1664.48   56.41
  -2  -2 -10 1580.90   61.74
   2   2 -11   -3.15    3.97
  -2   2 -11    6.55    3.83
  -2  -2 -11    5.49    3.95
  -2  -2 -11    6.33    5.44
   2   2 -11    9.42    3.96
   2  -2 -11    7.15    4.45
  -2  -2 -12 1663.23   52.07
   2  -2 -12 1649.27   55.86
   2   2 -12 1678.67   49.59
  -2  -2 -12 1686.17   56.83
  -2   2 -12 1622.78   48.22
   2   2 -12 1712.96   48.60
   2   2 -13    0.78    2.01
  -2   2 -13    1.01    1.86
  -2  -2 -13    2.71    3.45
   2  -2 -13    8.87    4.47
   2  -2 -14  848.08   29.09
  -2  -2 -14  880.01   28.30
   2   2 -14  839.71   25.47
  -2   2 -14  885.47   27.27
   2  -2 -14  874.37   27.84
   2  -3   0  109.11    9.90
   2  -3   0  114.28   11.48
   2   3   0  129.58   16.98
  -2   3   0  135.68   23.36
   2   3   0  132.88   24.07
   2   3   0  135.30   19.55
   2   3   1   -0.31    2.86
   2   3   1   -7.30    8.33
  -2   3   1   -4.51    5.35
   2   3  -1   -0.79    4.45
   2   3   1   -3.45    3.74
   2   3  -1   -1.96    2.64
  -2   3  -1    1.21    7.13
   2   3  -1   -2.70    6.35
   2   3   2   56.30   16.83
  -2   3   2   55.22   17.32
   2   3  -2   52.18   16.56
   2   3  -2   42.63   12.54
  -2   3  -2   42.91   12.27
   2   3   2   47.72   12.09
   2   3  -3    1.89    8.34
   2   3  -3    0.54    3.02
  -2   3   3   -1.18    4.86
  -2  -3  -3    0.99    5.01
  -2   3  -3    3.53    3.43
  -2  -3  -4    7.08    9.71
   2   3  -4    3.99    9.10
  -2   3   4    5.69    6.96
  -2   3  -4    4.22    5.30
   2   3  -4    2.79    3.06
  -2   3  -5    5.34    8.33
  -2   3   5   12.36   10.40
  -2  -3  -5   -2.60    9.75
   2   3  -5   -8.07    7.60
   2   3  -6   18.74   12.42
  -2  -3  -6   -2.44    4.53
  -2   3   6   -0.59   11.37
   2   3  -6  -11.98    6.97
  -2   3  -6   -4.85    8.21
  -2   3  -7   17.76    9.93
  -2  -3  -7   -1.91   12.01
   2   3  -7    4.23    4.38
  -2   3   7    3.74    4.69
   2   3  -7    5.54    2.10
   2  -3  -7    4.78    1.65
  -2   3  -8   30.66    7.52
   2   3  -8   35.55    7.98
   2   3  -8   20.44    5.41
  -2   3  -8   30.63   16.95
   2  -3  -8   25.15    7.93
  -2   3   8   27.89   19.46
  -2  -3  -8   25.93   14.60
  -2   3  -8   23.35    6.91
   2   3   8   32.74    7.71
   2   3  -8   29.54    7.03
   2  -3  -8   21.97    5.76
  -2  -3  -8   27.49    7.68
   2   3  -9    2.33    2.24
  -2   3  -9   12.81    5.28
  -2   3  -9   -1.28    2.14
   2  -3  -9    7.92    4.82
  -2   3  -9   11.25    9.72
   2   3  -9    0.53    2.02
   2  -3  -9   12.18    7.62
  -2   3   9    8.08    8.92
  -2  -3  -9    2.68    3.59
  -2  -3  -9   -8.43    8.82
  -2   3 -10   28.76    6.60
  -2  -3 -10   35.69    8.82
   2  -3 -10   34.68    8.98
   2  -3 -10   27.65    7.45
  -2  -3 -10   27.57    7.82
   2   3 -10   22.28    5.41
   2   3 -10   29.82    7.64
  -2   3 -10   36.74    8.32
  -2   3 -11    5.80    2.57
  -2  -3 -11    2.82    4.02
  -2  -3 -11    2.51    2.91
   2   3 -11   17.57    6.81
   2   3 -11    6.98    3.82
   2  -3 -11   14.46    5.27
  -2   3 -12   21.41    5.21
  -2  -3 -12   22.04    6.48
  -2  -3 -12   19.42    5.79
   2  -3 -12   18.04    6.28
   2   3 -12   19.10    5.62
  -2  -3 -13    1.54    1.83
   2  -3 -13   10.17    3.85
   2   3 -13    9.31    3.53
  -2   3 -13    9.63    3.84
  -2   3 -13    5.28    2.53
  -2   3 -14   14.78    3.13
   2  -3 -14    7.33    2.18
   2  -3 -14   13.17    3.57
   2   3 -14   19.31    3.67
  -2  -3 -14   12.36    3.03
   2   4   0 5061.15  127.90
  -2   4   0 4458.97  137.19
   2   4   0 5133.38  152.22
  -2   4  -1    3.47    5.25
   2   4   1    3.59    3.84
   2   4   1    2.48    4.69
   2   4   1   -4.43    9.48
   2   4  -1    1.96    4.01
  -2   4   1    7.38    6.13
   2   4  -1    0.84    1.83
   2   4  -1    3.29    9.82
   2   4   2 4887.80  139.52
   2   4   2 5265.14  161.90
  -2   4   2 5044.16  155.70
  -2   4  -2 4932.83  150.80
   2   4  -2 5003.11  155.86
   2   4   2 4915.13  123.11
  -2   4  -3    4.25    5.53
  -2   4   3   -1.38    9.23
   2   4  -3   -2.48    4.84
   2   4  -3    3.82    2.40
   2   4   3   -3.62    5.86
   2   4   3    5.92    8.49
  -2   4  -4 3919.28  141.05
   2   4   4 4714.97  160.57
   2   4  -4 4000.17  150.16
  -2   4   4 4935.49  183.37
   2   4   4 4273.78  156.34
  -2   4  -5  -16.82    9.89
   2   4   5   -0.19    5.99
   2   4   5    1.89   11.42
   2   4  -5    1.50    3.35
  -2   4   5   -1.28   12.29
  -2   4   6 1916.00  129.93
  -2   4  -6 1657.66  104.18
   2   4   6 2105.45  128.13
   2   4  -6 1758.12  108.75
   2   4  -7    2.61    3.18
  -2   4  -7    6.40   10.20
  -2   4  -7    1.80    2.06
   2   4   7    4.04   11.65
  -2   4   7   15.52   15.85
   2   4  -7    9.03    3.86
  -2  -4  -7   -1.72    2.88
   2  -4  -7    1.96    3.69
   2  -4  -7    1.92    2.46
   2   4  -7    9.38    5.88
   2   4   7    5.59    4.45
  -2   4  -8 2125.40   60.16
   2   4   8 2446.55  160.26
  -2   4  -8 1927.77   58.43
  -2  -4  -8 2027.52   67.50
   2   4  -8 2074.98   58.99
  -2   4  -8 1750.75  118.90
  -2   4   8 2431.87  162.92
   2  -4  -8 1854.11   63.25
   2   4  -8 1906.66   56.65
   2   4   8 2053.54   64.13
   2  -4  -8 1956.56   58.23
  -2   4  -9    0.05    1.93
   2   4   9   -1.65    2.94
  -2  -4  -9   -0.99    2.39
   2   4  -9   -0.83    2.46
   2  -4  -9    0.57    3.30
   2  -4  -9   -4.28    4.02
  -2   4  -9    0.11    2.63
  -2   4 -10 1166.86   42.58
  -2   4 -10 1073.40   40.87
   2  -4 -10 1027.22   44.14
  -2  -4 -10 1080.90   46.47
   2  -4 -10 1117.58   43.03
   2   4 -10 1214.58   44.31
   2   4 -10 1124.62   42.25
  -2   4 -11   -0.93    2.49
   2   4 -11    2.39    3.22
  -2  -4 -11   -4.04    4.55
  -2  -4 -11    1.46    2.16
   2  -4 -11   -0.63    2.83
  -2  -4 -12 1057.03   38.79
   2  -4 -12 1020.67   36.55
  -2   4 -12 1026.38   33.91
  -2   4 -12  976.04   31.94
   2   4 -12 1123.27   35.39
   2   4 -13    1.95    2.01
  -2  -4 -13   -3.07    2.38
  -2   4 -13    1.80    1.33
  -2   4 -13    1.07    1.01
   2  -4 -13    4.42    2.98
  -2   4 -14  702.57   18.70
   2  -4 -14  718.45   20.51
   2   4 -14  770.13   19.95
  -2   5   0  119.05   23.33
   2   5   0  104.69   23.17
   2   5   1   -5.00    5.73
  -2   5  -1   10.96   10.26
   2   5  -1   -0.89    6.37
  -2   5   1    5.56    6.04
   2   5   1   -4.77    5.88
  -2   5   2  219.00   34.09
   2   5   2  270.34   36.56
  -2   5  -2  223.15   33.66
   2   5  -2  231.44   35.75
   2   5   2  252.11   38.73
   2   5  -3    1.17    8.55
  -2   5   3    0.93    7.13
  -2   5  -3   -3.49    4.65
   2   5   3   -0.66    5.44
   2   5  -4   76.88   22.66
   2   5   4   98.68   26.55
  -2   5  -4   48.01   14.45
   2   5   4   89.49   24.21
  -2   5   4   87.41   23.51
  -2   5  -5   13.52    5.78
   2   5  -5   -1.23    6.61
  -2   5   5   13.04    5.32
   2   5  -5   12.84    4.30
  -2   5   5    6.47    6.33
   2   5  -5    9.61    3.62
  -2   5  -5   15.52   11.38
   2   5   5   18.02    6.34
   2   5   5   13.25    9.54
   2   5  -5    7.68    3.36
   2   5   5   18.04   12.22
  -2   5  -6    2.73    2.22
   2   5  -6    8.70    8.22
   2   5   6   19.12   12.77
   2   5   6    9.49    6.58
   2   5  -6    3.71    2.94
  -2   5   6    2.67    2.74
  -2   5   6    4.78    6.60
   2   5  -6    4.67    3.51
  -2   5  -6    6.21    7.08
   2   5   6   -1.10    7.63
   2  -5  -6   -5.60    6.00
   2   5   7   -0.79    3.92
  -2   5  -7  -16.73   11.51
  -2   5  -7    6.11    3.97
  -2   5   7  -35.17   19.34
  -2   5   7   -1.92    3.50
  -2   5  -7    5.38    2.54
   2   5   7    5.48    3.61
   2   5  -7    7.78    3.39
   2   5   7  -25.58   15.64
   2  -5  -7    2.76    4.79
   2   5  -7    4.79    2.88
  -2   5  -8   13.58    5.79
  -2   5  -8    8.27    4.89
   2   5   8   15.87    5.53
   2  -5  -8   16.60    7.31
   2  -5  -8    5.94    3.57
   2   5  -8    3.66    2.78
  -2  -5  -8   11.38    5.72
   2   5  -8   11.14    4.76
  -2   5  -9    4.08    3.11
  -2   5  -9    5.82    3.98
   2  -5  -9    3.08    2.53
   2   5   9    8.58    4.04
   2  -5  -9    8.16    4.94
   2   5  -9    7.11    4.81
  -2  -5  -9    2.15    2.30
   2  -5 -10   -0.02    2.74
  -2   5 -10    2.88    2.50
   2   5 -10    4.61    2.71
   2   5  10    5.32    2.17
  -2   5 -10    7.58    4.70
  -2  -5 -10   -2.36    2.60
  -2   5 -10    1.71    2.56
   2  -5 -10   -0.93    4.36
  -2   5 -11    5.46    2.65
  -2  -5 -11    0.41    2.61
  -2  -5 -11    3.16    2.35
  -2   5 -11    2.69    1.69
   2   5 -11    4.75    3.48
   2  -5 -11    2.23    2.38
   2   5 -12    2.38    1.91
  -2   5 -12    1.64    1.08
  -2  -5 -12    2.53    2.17
  -2   5 -12   -1.07    2.12
   2  -5 -12    5.34    2.40
  -2  -5 -13    1.59    1.67
  -2   5 -13    2.17    1.10
   2   5 -13    0.96    0.69
   2  -5 -13    1.03    1.41
  -2   6   0 1731.05  100.40
   2   6   0 1676.13   99.19
   2   6  -1    4.96    6.37
  -2   6  -1   -0.83    2.55
  -2   6   1   -7.21    6.73
   2   6  -1    0.23    2.11
   2  -6  -1   -2.07    1.95
   2   6   1    1.70    8.27
  -2   6  -1    0.58    6.29
   2  -6   1   -0.96    2.23
   2  -6   2 1800.67   60.85
   2   6   2 1744.02   57.30
  -2  -6  -2 1908.82   60.68
  -2   6   2 1944.55  106.26
  -2   6  -2 1882.66  103.90
   2  -6  -2 1964.62   63.14
   2   6  -2 1993.90  111.89
   2   6  -2 1836.75   48.99
  -2   6  -2 2069.73   54.92
  -2   6  -3    0.16    2.23
  -2   6  -3   -0.61    2.85
   2  -6  -3   -2.75    2.03
   2   6   3   -1.52    3.12
   2   6   3  -19.42   11.23
   2   6   3   -2.40    2.90
  -2   6   3   -8.62    7.57
   2  -6   3   -1.02    3.36
   2   6  -3   -6.40    8.45
  -2  -6  -3   -2.51    2.22
   2   6  -3   -1.33    2.17
   2   6   3   -0.12    7.72
   2  -6  -4 2064.66   64.87
  -2   6  -4 1788.60  105.90
   2   6  -4 1759.17   51.56
   2  -6   4 1643.12   56.69
   2   6  -4 2089.31   55.66
  -2   6   4 2049.44  118.87
   2   6   4 2251.34  129.81
  -2   6   4 2103.84   61.75
   2   6  -4 1612.11   45.94
   2   6   4 1993.81  119.83
   2   6   4 1944.63   61.44
   2   6  -4 2144.06  117.31
  -2   6  -4 1987.01   55.71
   2   6   5    1.12    4.22
  -2   6  -5   -2.73    3.56
   2   6  -5   -0.06    1.75
   2   6   5   13.67   11.37
  -2   6   5    2.11    3.59
   2  -6  -5   -6.26    4.08
   2   6   5    1.68    4.22
  -2   6   5   -3.91    7.59
  -2   6  -5   -2.15    6.91
   2   6  -5   -0.78    1.16
  -2   6  -6 1111.35   43.51
   2   6   6 1121.86   48.45
  -2   6  -6  795.39   76.89
   2  -6  -6 1008.21   44.85
   2   6  -6 1102.17   40.13
   2   6   6  859.35   86.05
   2   6  -6 1004.21   38.34
   2   6  -6  949.35   82.93
  -2   6   6 1090.70   43.99
  -2   6   6 1058.92   96.52
   2   6   6  878.08   89.67
  -2   6  -7    0.79    3.31
   2   6  -7    2.57    3.47
  -2   6   7    1.38    3.98
  -2   6  -7   -0.69    2.35
   2   6   7   -1.80    3.54
   2  -6  -7   -1.49    3.31
   2   6  -7    1.60    2.73
  -2   6  -8 1869.23   54.16
   2   6  -8 1750.92   50.25
  -2   6   8 1664.98   53.29
   2  -6  -8 1835.63   58.86
   2  -6  -8 1720.76   55.66
   2   6  -8 1604.23   45.40
   2   6   8 1815.18   59.22
  -2   6  -8 1716.15   51.60
   2   6  -9    2.06    2.28
   2   6   9    1.85    2.11
  -2   6  -9   -0.62    6.72
   2  -6  -9    1.16    2.07
   2  -6  -9   -0.37    2.78
  -2   6  -9    1.11    2.27
   2   6  -9    6.06    4.17
  -2   6  -9   -1.18    2.13
   2  -6 -10  862.32   34.35
   2   6  10  899.02   34.47
   2  -6 -10  961.01   36.95
   2   6 -10  955.77   32.72
  -2   6 -10  781.13   26.89
  -2   6 -10  827.39   29.96
  -2   6 -10  946.72   33.60
  -2   6 -11   -1.37    1.55
   2   6 -11    2.14    1.78
  -2  -6 -11   -4.93    3.36
   2  -6 -11   -0.54    1.92
  -2   6 -11   -1.08    1.17
  -2  -6 -12  671.49   23.58
   2  -6 -12  623.74   21.23
   2   6 -12  659.64   19.54
   2   7   0   -1.07    7.97
  -2  -7   0   -0.57    3.47
   2  -7   0    5.69    3.62
   2   7   0    7.60    3.81
   2   7   0    8.13    3.45
  -2   7   0   11.47    8.98
  -2   7  -1    9.26   12.39
   2   7  -1   -6.57    7.10
  -2  -7   1   -0.09    2.54
   2  -7  -1   -1.91    3.84
   2   7   1  -18.17   10.99
   2   7   1   -1.25    3.00
  -2   7   1    3.60    5.54
  -2  -7  -1   -3.60    3.82
   2  -7   1   -0.17    2.59
   2   7   1    0.31    2.87
   2   7  -1    2.57    2.59
  -2   7  -2   28.69    6.54
   2   7  -2   42.62   16.27
   2  -7  -2   26.09    7.45
   2   7   2   23.39    5.46
  -2   7   2   14.21    9.77
   2  -7   2   32.80    7.90
  -2  -7  -2   29.92    8.11
   2   7  -2   24.95    5.54
   2   7   2    3.66    3.33
   2   7   2   37.84    8.32
  -2   7  -3    9.86    4.73
   2   7  -3   21.12   13.95
  -2   7   3   10.24    8.36
   2   7   3   15.47    5.77
   2   7   3    0.31    8.26
  -2   7   3   12.18    5.11
  -2   7  -3   -3.65    5.42
   2   7   3   10.83    4.06
   2   7  -3    8.34    3.71
   2  -7   3    9.48    4.45
   2  -7  -3   13.98    5.28
   2  -7   4   21.04    6.73
  -2   7  -4   19.78    5.49
   2   7   4   13.67   10.07
  -2   7   4   18.96    6.11
   2  -7  -4   15.13    6.09
   2   7  -4   24.46    6.33
   2   7   4   17.11    5.63
   2   7   5    5.71    2.42
   2  -7  -5    7.43    3.50
  -2   7   5    7.62    4.00
   2   7  -5   11.66    4.19
  -2   7  -5   12.86    5.02
   2   7   6   13.36    5.56
  -2   7  -6    4.97    3.10
  -2   7  -6    6.68    3.48
  -2   7   6   10.02    4.88
   2  -7  -6   10.32    4.61
   2   7  -6    9.68    4.16
   2   7  -6    6.07    3.51
  -2   7  -7    2.39    2.29
  -2   7  -7    9.15    4.61
  -2   7   7    7.07    3.77
   2   7  -7    4.41    3.79
   2   7  -7    5.19    2.66
   2   7   7    5.92    4.35
   2   7  -8   28.58    5.59
  -2   7  -8   32.48    6.56
  -2   7   8   32.06    6.67
   2  -7  -8   36.70    8.80
  -2   7  -8   31.43    6.05
   2   7   8   26.41    7.00
   2   7  -8   27.26    5.74
   2  -7  -9   10.70    4.78
  -2   7  -9    7.94    3.63
   2   7   9    4.31    2.60
  -2   7   9    1.95    1.57
  -2   7  -9    3.25    2.05
   2   7  -9    4.15    1.99
   2   7  -9    4.70    2.82
   2   7 -10   14.19    3.58
   2   7  10   14.26    3.79
   2  -7 -10   15.00    3.76
  -2   7 -10   16.78    3.57
   2   7 -11    1.03    0.83
  -2   7 -11    0.06    0.69
   2   8   0  841.87   33.80
  -2   8   0  815.50   36.52
   2  -8   0  852.39   38.79
   2  -8  -1    1.42    2.24
   2  -8   1    3.57    2.37
  -2   8   1   -0.28    3.20
  -2   8  -1   -0.13    2.50
   2   8   1   -0.80    3.64
   2   8   1    5.00    3.29
   2   8  -1    2.15    3.02
  -2   8  -1    0.33    1.53
   2   8   2  688.85   33.45
  -2   8   2  737.49   34.83
   2  -8   2  729.68   35.95
   2  -8  -2  734.96   36.35
   2   8   2  666.02   29.47
  -2   8  -2  654.30   31.89
   2   8  -2  730.18   30.69
   2  -8   3    1.62    2.48
   2  -8  -3    2.62    4.49
  -2   8   3    2.74    3.63
   2   8   3   -0.13    3.10
   2   8  -3    1.80    2.01
   2  -8   4 1109.92   44.07
  -2   8  -4 1078.53   37.21
   2  -8  -4 1201.61   46.57
   2   8   4 1051.93   40.17
   2   8  -4 1069.66   36.59
  -2   8   4 1175.39   43.82
  -2   8  -4 1132.94   38.28
  -2   8  -5    3.21    2.79
   2  -8  -5   -0.50    2.19
  -2   8  -5   -0.01    1.96
  -2   8   5    3.58    3.19
   2   8  -5    0.05    2.08
   2   8   5    8.69    4.61
  -2   8  -6  948.78   33.11
  -2   8  -6  953.76   32.61
  -2   8   6  998.86   38.49
   2  -8  -6  941.29   37.23
   2   8  -6  944.78   32.69
   2   8   6  921.55   35.55
  -2   8  -7    3.09    2.39
   2   8  -7   -2.85    2.73
  -2   8  -7   -1.74    2.12
   2  -8  -7    3.13    3.80
   2   8   7   -0.01    2.46
  -2   8   7   -3.15    2.47
  -2   8  -8 1216.59   32.58
   2   8   8 1121.89   34.03
  -2   8   8 1211.96   35.56
   2   8  -8 1058.04   28.90
   2  -8  -8 1152.92   35.16
  -2   8  -8 1133.45   30.76
   2  -8  -9   -1.86    1.22
  -2   8   9    0.39    0.83
   2   8  -9   -0.20    1.24
   2   8   9   -0.79    1.65
  -2   8  -9   -0.69    1.15
  -2  -8 -10  671.83   20.82
  -2   8 -10  667.11   17.03
  -2   9   0   38.79    7.53
   2   9   0   47.55    7.36
   2  -9   0   41.41    7.59
  -2   9   1   -3.68    3.86
  -2   9  -1   -1.64    2.76
   2  -9  -1   -4.97    3.93
   2  -9   1    1.54    1.95
   2   9   1    4.07    2.97
   2   9  -1    6.82    3.40
   2   9   1    1.37    1.83
   2  -9   2   15.11    5.17
  -2   9   2   13.70    4.43
  -2   9  -2   16.87    4.09
   2   9   2   22.07    5.68
   2   9   2   16.05    4.69
   2   9  -2   19.14    5.16
  -2   9  -2   13.26    3.76
   2  -9  -2   20.29    5.18
   2   9  -3    5.77    3.93
  -2   9  -3    6.44    2.65
   2  -9   3    2.87    2.34
  -2   9   3    5.36    3.04
   2   9   3    0.71    2.06
  -2   9  -3    1.10    1.72
   2  -9  -3    1.59    3.09
  -2   9  -4   33.22    5.80
  -2   9   4   33.76    7.21
   2   9  -4   35.82    6.22
   2  -9  -4   32.25    6.54
  -2   9  -4   30.36    5.50
   2  -9   4   23.93    5.26
   2   9   4   24.21    5.44
  -2   9  -5    3.46    2.76
   2   9   5    0.04    1.50
   2  -9  -5    8.38    3.66
  -2   9   5    9.03    3.59
   2   9  -5    3.66    2.89
  -2   9  -6   57.06    6.62
   2   9   6   49.78    6.93
  -2   9   6   61.19    8.24
   2   9  -6   54.70    7.04
  -2   9  -6   56.37    6.74
  -2   9  -7    6.70    2.36
   2   9   7    6.94    2.57
   2  -9  -7    4.59    2.27
   2   9  -7    5.81    2.28
  -2   9   7    5.27    2.41
  -2   9  -7    5.93    2.49
   2  -9  -8   13.83    3.00
  -2   9   8   18.80    3.53
  -2   9  -8   20.03    3.14
   2   9  -8   18.51    3.05
   2   9   8   21.63    3.82
   2 -10   0  864.13   29.30
   2  10   0  885.62   26.15
  -2  10   0  920.71   28.90
   2  10   1    0.18    1.34
   2 -10  -1    2.42    2.41
   2 -10   1    1.20    1.48
  -2  10   1    3.17    1.99
   2  10  -1    2.53    2.47
   2  10   2  452.14   19.37
  -2  10   2  496.82   21.30
   2  10  -2  509.79   19.87
   2 -10  -2  481.78   20.77
   2 -10   2  482.51   21.33
   2  10  -3   -0.47    1.33
   2 -10  -3    1.67    2.15
   2  10   3   -1.51    0.99
   2 -10   3    4.57    2.34
  -2  10  -3    0.62    1.11
  -2  10   3    0.84    1.19
  -2  10  -4  565.16   18.27
  -2  10   4  582.54   21.22
   2  10  -4  584.12   20.00
   2  10   4  575.05   20.88
   2  10   5    1.41    1.56
  -2  10   5    0.49    0.93
   2  10  -5   -0.55    1.19
  -2  10  -5    1.85    1.32
   2  10   6  424.33   14.84
  -2  10   6  472.47   16.36
   2  10  -6  469.76   15.17
  -2  10  -6  434.98   13.97
   3   0   0    6.93    7.02
  -3   0   0   -2.55    2.14
  -3   0   1   -2.28    2.81
  -3   0  -1   -6.02    4.31
   3   0  -1   -5.47    4.61
  -3   0   1   -0.88    1.47
   3   0  -1    2.98    4.22
   3   0  -2    4.33    4.48
  -3   0  -2    7.35    5.33
   3   0  -2    8.27    7.38
   3   0  -2    4.32    5.54
  -3   0   2    3.65    2.13
   3   0  -3    1.38    5.03
  -3   0  -3   -5.11    4.10
   3   0  -3   -4.29    6.90
  -3   0   3    1.49    3.09
   3   0  -3    3.86    7.88
  -3   0  -4  121.32   23.00
   3   0  -4  143.00   25.85
  -3   0   4  103.58   19.08
  -3   0  -5    3.76    5.25
   3   0  -5   -1.34    4.83
   3   0  -6   22.59   11.26
  -3   0  -6    8.48    4.56
   3   0  -7   -2.60    7.97
  -3   0  -7    6.38    4.61
  -3   0  -8    1.80    1.67
   3   0  -8    0.27    4.51
  -3   0  -8   -4.43    5.21
   3   0  -8  -10.33    8.68
   3   0  -8   -6.76    5.09
  -3   0  -8    3.99    5.70
  -3   0  -9  -14.72   10.50
  -3   0  -9   -1.24    4.23
   3   0  -9    5.21    4.32
   3   0  -9    2.70    4.54
   3   0  -9   -3.74    4.97
   3   0  -9    4.40    2.91
  -3   0  -9   -2.05    5.42
  -3   0 -10    6.38    3.97
   3   0 -10   -0.52    2.43
   3   0 -10   -2.13    2.57
   3   0 -10    1.86    2.49
  -3   0 -11   -3.47    3.04
   3   0 -11    0.26    2.61
  -3   0 -12    3.32    2.71
   3   0 -12    3.94    3.78
   3   0 -12    5.97    2.85
   3   0 -13   -3.02    2.94
  -3   0 -13   -2.95    3.11
   3   0 -13   -1.92    1.96
   3   0 -14    1.50    1.44
  -3   0 -14   -1.07    2.12
  -3   1   0   -1.67    4.14
   3   1   0    0.14    4.62
  -3  -1   0    1.64    1.29
   3  -1   0    0.73    1.36
  -3   1  -1  469.60   34.03
   3   1  -1  411.07   39.53
   3  -1  -1  387.56   37.56
   3  -1  -1  427.53   35.25
  -3  -1  -1  417.07   25.78
   3   1  -1  361.38   35.20
   3  -1  -1  425.22   16.81
  -3   1   1  441.04   33.80
   3   1   1  442.73   41.88
  -3   1  -2  557.51   40.51
   3   1  -2  525.68   48.30
   3  -1  -2  527.83   45.21
  -3  -1  -2  566.34   36.66
   3   1  -2  587.84   46.31
   3  -1  -2  507.39   41.34
  -3   1   2  471.78   38.16
  -3   1  -3  592.74   48.14
  -3   1   3  533.29   49.57
   3   1  -3  457.75   40.87
   3   1  -3  520.93   43.14
   3  -1  -3  516.28   45.29
   3   1  -3  467.67   47.14
  -3  -1  -3  509.44   39.70
   3  -1  -3  437.96   40.79
  -3   1  -4  148.01   24.59
  -3   1   4  143.89   28.14
  -3  -1  -4  170.89   26.09
   3  -1  -4  138.89   26.41
   3   1  -4  175.92   26.97
   3   1  -4  134.18   23.88
  -3   1   5  473.22   54.87
  -3  -1  -5  505.29   49.90
   3   1  -5  461.84   46.54
   3  -1  -5  547.44   62.19
   3   1  -5  519.10   50.48
  -3   1  -5  440.40   45.04
  -3  -1  -6  115.60   25.36
  -3   1  -6  104.94   23.85
   3   1  -6  104.00   22.38
  -3   1   6  118.15   28.73
   3  -1  -6  128.30   28.88
  -3   1  -7  217.37   36.85
   3  -1  -7  230.39   41.33
  -3  -1  -7  260.03   39.06
   3   1  -7  226.55   34.73
  -3   1  -8   26.28    7.19
  -3  -1  -8   18.92    5.27
  -3  -1  -8   27.14    8.79
   3  -1  -8   29.29    8.66
   3   1  -8   25.93    8.31
  -3  -1  -8   19.71   11.58
   3  -1  -8   31.81   16.30
   3   1  -8   17.37    5.25
  -3   1  -8   22.27   11.22
   3  -1  -8   16.56    4.31
   3  -1  -8   26.40    8.71
   3   1  -8   28.04   11.82
  -3  -1  -9  270.73   21.13
  -3  -1  -9  307.61   27.08
   3  -1  -9  316.31   50.53
   3  -1  -9  303.77   26.09
   3   1  -9  303.96   26.02
   3   1  -9  245.46   39.25
  -3   1  -9  307.56   47.90
   3   1  -9  294.65   25.48
   3  -1  -9  338.31   30.89
  -3   1  -9  278.70   21.36
  -3  -1  -9  241.66   41.49
  -3   1 -10  106.71   13.63
  -3  -1 -10   95.02   12.92
   3   1 -10  114.80   16.71
  -3  -1 -10   91.28   14.76
   3   1 -10  100.70   14.52
   3  -1 -10  107.47   15.67
   3  -1 -10  109.14   16.66
  -3   1 -11  251.87   19.93
   3   1 -11  226.48   18.23
  -3  -1 -11  212.18   18.98
   3   1 -11  230.09   20.76
   3  -1 -11  241.64   22.90
   3   1 -12   -9.90    5.65
  -3   1 -12   -3.72    3.28
  -3  -1 -12   -2.20    4.27
   3   1 -12    2.17    2.09
   3  -1 -12    0.80    2.59
  -3   1 -13  126.90   12.03
  -3  -1 -13  134.37   12.99
   3  -1 -13  133.30   12.50
   3   1 -13  109.47   10.43
   3   1 -13  126.54   11.41
   3  -1 -13  119.04   12.45
   3  -1 -14    9.79    2.46
  -3   1 -14   16.54    3.67
  -3  -1 -14   14.80    3.69
   3  -1 -14   13.05    3.18
   3   2   0    8.47    7.20
   3  -2   0    3.32    3.51
   3   2   0    2.72    9.62
   3   2   0   -1.21    1.24
  -3   2   0   -6.65    6.25
   3   2  -1   32.27   10.83
   3   2   1   17.10   10.82
   3  -2  -1   31.66    9.01
   3  -2  -1   24.69    7.36
  -3   2  -1   40.01   12.25
  -3   2   1   34.52   13.58
  -3  -2  -1   34.17    9.19
   3   2  -1   19.93    7.79
  -3  -2  -2    1.94    2.89
   3   2  -2    3.12    5.91
   3   2  -2    2.61    6.29
  -3   2  -2    4.51    5.71
  -3   2   2    1.91   13.05
   3   2   2   -3.48    6.48
   3  -2  -2    2.06    5.10
   3  -2  -2   -4.59    5.41
   3   2  -3  150.12   27.67
   3   2  -3  101.42   22.36
  -3   2  -3  101.15   19.45
   3  -2  -3  105.52   22.25
  -3   2   3   90.88   21.38
  -3  -2  -3   95.40   16.88
   3   2  -4   10.18    6.77
  -3  -2  -4   15.18    7.80
  -3   2   4   12.02    8.73
   3   2  -4   11.21    8.03
  -3   2  -4   10.73   11.51
  -3   2  -5   87.45   22.88
  -3  -2  -5   73.19   18.62
   3   2  -5   90.19   23.02
  -3   2   5   80.29   24.05
   3   2  -5   77.51   18.68
   3   2  -6   -8.84   12.39
  -3   2  -6   -4.59    8.95
   3   2  -6   -2.29    6.29
  -3  -2  -6   -1.74    4.18
  -3   2  -7   81.10   11.40
  -3   2   7   92.26   29.77
   3  -2  -7   64.86    9.43
   3   2  -7   87.86   21.69
  -3   2  -7   89.98   23.80
  -3  -2  -7   95.90   25.28
   3  -2  -7  103.95   18.74
  -3  -2  -8    4.33    3.91
   3   2  -8    0.50    3.11
  -3   2  -8    2.30    2.88
  -3  -2  -8    1.11    2.41
   3  -2  -8    2.06    1.77
   3   2   8   -5.58    4.38
  -3   2  -8    6.29    9.02
   3   2  -8    4.68    5.25
   3   2  -8    2.82    3.10
   3  -2  -8    2.22    2.80
   3   2  -8    7.61    5.47
   3  -2  -8    3.94    4.35
  -3  -2  -8   11.30    8.30
  -3   2  -9   89.40   12.34
  -3  -2  -9   76.34   11.92
   3   2  -9   82.91   11.36
  -3  -2  -9   55.76   20.53
   3   2  -9   85.81   14.48
  -3   2  -9   70.59   22.09
   3  -2  -9   85.78   13.57
   3   2  -9   43.88   16.09
   3  -2  -9   63.07    9.57
  -3  -2  -9   87.05   15.63
   3  -2  -9   55.69   20.55
   3   2  -9   82.14   13.01
   3  -2  -9   85.27   16.07
  -3   2 -10   -1.34    2.42
  -3  -2 -10    4.67    2.73
  -3  -2 -10   -4.58    6.00
   3   2 -10   -2.30    2.50
   3  -2 -10    5.18    5.54
   3   2 -10    1.36    3.57
   3  -2 -11   39.90   10.29
  -3  -2 -11   30.97    7.13
   3   2 -11   30.99    5.96
   3   2 -11   43.33    8.81
  -3   2 -11   25.14    5.90
   3   2 -12    1.26    1.88
  -3   2 -12    1.49    2.88
   3   2 -12    5.08    3.31
   3  -2 -12    4.99    4.83
  -3  -2 -12    1.04    4.16
  -3   2 -13   24.42    4.97
   3  -2 -13   22.18    5.32
  -3  -2 -13   28.10    6.32
   3   2 -13   24.65    4.81
   3  -2 -13   25.90    6.33
  -3   2 -14    1.01    0.85
  -3   2 -14    1.63    1.67
   3  -2 -14   -2.61    2.09
  -3  -2 -14    2.39    1.58
   3  -2 -14   -0.81    1.58
   3   3   0   -0.11    4.36
   3   3   0    1.56    3.88
   3  -3   0   -1.09    3.30
  -3   3   0   -1.84    5.03
   3   3   1  601.69   39.87
  -3   3   1  656.38   56.12
   3   3   1  644.27   48.80
   3  -3  -1  591.57   40.96
   3   3  -1  697.84   54.99
   3   3   1  664.35   57.62
   3   3  -1  578.29   51.01
  -3   3  -1  715.90   57.66
  -3   3  -2  844.52   61.13
   3  -3  -2  933.15   65.52
   3   3  -2  891.94   65.40
  -3   3  -2  857.36   59.90
   3   3  -2  780.42   63.96
   3   3   2  852.60   65.89
  -3   3   2  789.51   62.36
  -3   3  -3  668.21   53.51
   3   3   3  691.16   59.85
   3  -3  -3  736.20   67.70
  -3  -3  -3  702.88   56.71
  -3   3   3  731.57   64.67
   3   3  -3  661.23   62.53
   3   3  -3  641.79   55.92
  -3   3  -4  311.36   38.11
  -3   3   4  321.12   47.28
  -3  -3  -4  356.35   42.69
   3   3  -4  364.62   47.12
  -3   3  -5  377.27   46.73
  -3   3   5  516.80   65.97
   3   3  -5  434.26   52.74
  -3  -3  -5  376.95   46.97
  -3   3  -6  191.10   33.83
  -3  -3  -6  258.36   41.73
  -3   3   6  254.69   47.14
   3   3  -6  262.94   43.25
  -3   3  -7  285.85   21.76
   3   3  -7  256.45   19.93
  -3   3  -7  243.26   40.36
   3   3   7  274.47   22.90
   3  -3  -7  271.89   20.36
  -3  -3  -7  327.65   50.02
   3   3  -7  265.12   22.45
   3  -3  -7  296.71   29.29
   3   3  -7  237.67   21.80
  -3   3   7  344.97   59.52
  -3  -3  -7  306.84   31.24
  -3   3  -8  149.75   15.88
   3   3  -8  131.28   14.44
   3  -3  -8  142.40   15.26
  -3   3  -8  108.95   14.04
   3   3   8  119.54   14.87
   3   3  -8  128.48   16.52
  -3   3  -8  106.38   27.88
  -3  -3  -8  140.95   35.17
   3   3  -8  150.90   17.06
   3  -3  -8  153.50   20.34
  -3   3   8  108.93   33.71
  -3  -3  -8  144.56   20.11
  -3   3  -9  189.41   17.72
  -3  -3  -9  212.29   20.23
   3   3  -9  180.04   16.73
  -3   3  -9  181.88   17.18
   3   3   9  181.54   18.27
   3  -3  -9  197.98   18.17
   3   3  -9  212.23   20.81
   3   3  -9  225.57   21.10
  -3  -3  -9  209.58   22.54
   3  -3  -9  211.45   23.41
  -3   3 -10  104.75   13.04
  -3  -3 -10  102.62   14.12
   3   3 -10  109.10   12.51
   3  -3 -10  114.73   16.62
  -3  -3 -10   92.79   14.23
   3   3 -10  115.87   14.73
  -3   3 -11  121.33   12.90
  -3  -3 -11  125.05   14.70
   3   3 -11  138.65   14.37
   3   3 -11  154.65   15.79
   3  -3 -11  127.32   16.50
  -3   3 -12   79.03    9.55
  -3  -3 -12   75.52   10.46
   3   3 -12   84.59   10.20
   3  -3 -12   77.09   10.82
  -3   3 -13  101.67    9.39
   3  -3 -13   92.62   10.37
  -3  -3 -13  101.67   10.47
  -3   3 -13   98.55    9.43
   3   3 -13  105.81    9.70
   3  -3 -14   -3.09    2.09
  -3  -3 -14    2.17    1.82
  -3   3 -14    1.18    1.15
   3  -3 -14   -0.35    1.15
   3   4   0    3.61    7.21
  -3   4   0   -1.97    5.66
   3   4   0    0.67    4.41
   3   4   1  311.40   35.80
  -3   4   1  299.13   38.91
   3   4   1  353.46   45.40
  -3   4  -1  272.48   38.33
   3   4  -1  265.24   36.90
   3   4  -1  368.78   42.31
   3   4  -2    0.03    8.55
  -3   4  -2   20.33   13.63
   3   4  -2    9.29    5.71
   3   4   2   21.30    9.73
   3   4   2    5.98    5.07
  -3   4   2   18.99    9.40
   3   4   2    7.31    6.66
  -3   4  -3  312.33   41.20
   3   4   3  323.15   39.99
   3  -4  -3  287.52   38.71
   3   4   3  303.91   43.26
   3   4  -3  341.13   45.29
  -3   4   3  313.35   43.37
   3   4   3  301.98   35.46
   3   4  -4   55.26   19.04
   3   4   4   59.48   18.35
  -3   4   4   72.38   21.35
  -3   4  -4   48.00   14.97
   3   4   4   65.65   21.15
  -3   4  -5  179.01   32.62
   3   4   5  237.46   40.98
  -3   4   5  261.32   46.13
   3   4   5  222.65   41.75
   3   4  -5  210.04   37.66
   3   4  -6   41.20    8.58
  -3   4  -6   33.31    7.57
   3   4  -6   36.06   17.24
   3   4   6   22.54    6.75
   3   4  -6   32.14    7.89
  -3   4   6   15.38    6.92
   3   4   6   35.88   15.53
   3   4   6   28.36   11.23
   3  -4  -6   14.30    4.18
  -3   4  -6   10.55    7.17
  -3   4  -7  157.42   15.96
   3   4  -7  175.17   17.63
  -3   4  -7  155.47   32.46
   3   4  -7  138.76   33.56
   3   4   7  185.95   41.95
   3   4   7  176.20   19.35
   3   4  -7  122.60   14.48
  -3  -4  -7  152.66   21.17
   3  -4  -7  160.65   17.05
   3   4  -7  164.27   16.99
  -3   4   7  166.16   42.23
   3  -4  -7  161.93   20.90
   3   4   7  175.84   42.23
   3   4  -8   18.12    7.89
  -3   4  -8    5.00    4.09
  -3  -4  -8    0.79    3.07
   3   4  -8    4.02    4.36
   3   4   8    0.06    3.62
  -3   4  -8   10.81    5.78
   3  -4  -8    5.26    3.00
   3   4  -8    6.24    4.69
   3  -4  -8    1.38    2.38
  -3   4   8  -25.30   17.15
  -3   4  -8  -16.29   11.29
   3   4   8   -2.70   16.03
   3   4   8    9.99    9.75
  -3   4  -9  138.61   15.16
   3   4  -9  197.65   19.36
  -3   4  -9  140.46   15.19
   3   4   9  145.14   16.58
   3   4  -9  180.12   17.98
  -3  -4  -9  161.64   19.50
   3  -4  -9  129.91   16.32
   3  -4  -9  154.18   17.20
  -3   4 -10    2.48    3.44
  -3  -4 -10   -1.18    2.66
  -3   4 -10    0.02    1.75
   3   4  10   -0.80    2.10
   3   4 -10   -2.56    2.63
   3  -4 -10    3.97    2.50
   3  -4 -10   -1.34    2.99
  -3   4 -11  115.52   12.09
  -3  -4 -11  109.62   13.47
   3  -4 -11   97.85   12.48
   3   4 -11  119.28   12.67
   3   4 -12    6.43    2.73
  -3   4 -12    3.71    1.78
   3  -4 -12    1.81    1.74
  -3  -4 -13   81.03    8.55
   3   4 -13   88.29    7.81
  -3   4 -13   77.80    7.31
   3  -4 -13   80.67    8.25
  -3   4 -13   70.53    6.94
   3   5   0   -4.50    6.20
  -3   5   0    4.09    4.78
   3   5   0   -8.18    9.00
  -3   5  -1  277.60   39.94
   3   5   1  246.53   36.54
  -3   5   1  271.15   38.82
   3   5  -1  281.14   35.81
   3   5  -1  236.31   37.37
   3   5  -2   -1.72    7.29
  -3   5  -2   -3.06    5.22
   3   5   2   13.65   13.17
  -3   5   2    1.66    7.96
  -3   5   3  224.98   37.78
   3   5   3  219.77   38.96
  -3   5  -3  225.98   37.46
   3   5  -3  214.36   36.69
   3   5  -4   92.71   24.83
   3  -5   4   71.87   12.21
   3   5   4  118.58   18.76
   3   5  -4   93.34   11.57
  -3   5  -4   61.06   20.12
   3   5   4   77.97   10.98
   3   5  -4   92.11   12.52
  -3   5   4  115.42   28.92
   3   5   4  127.84   30.61
   3   5   4  101.96   25.30
  -3   5  -4  102.91   12.88
   3  -5   5  143.61   17.15
   3   5  -5  132.31   30.44
  -3   5  -5  162.34   32.74
   3  -5  -5  127.16   16.17
   3   5   5  191.76   22.89
   3   5   5  165.14   35.41
  -3   5   5  180.28   39.82
   3  -5  -5  117.61   16.98
   3   5   5  122.41   14.16
   3   5  -5  163.80   15.61
   3   5  -5  143.20   15.37
   3   5   5  160.43   37.67
  -3   5  -5  163.81   16.97
  -3   5  -6   14.08    4.62
   3   5  -6    6.76    4.56
   3   5   6  -12.37   10.79
  -3   5   6    6.36    3.80
   3   5  -6   14.41    5.13
  -3   5   6   24.08   15.20
   3   5  -6   11.01    4.15
   3  -5   6    7.62    2.62
   3  -5  -6    9.50    6.09
   3   5   6   13.43    5.28
  -3   5  -6    6.32    5.93
  -3   5  -7  211.57   19.40
   3   5   7  213.22   21.98
  -3   5   7  195.61   42.86
   3   5   7  125.75   33.63
   3  -5  -7  212.02   21.28
  -3   5   7  180.49   18.83
   3   5  -7  200.61   18.08
   3   5   7  211.91   48.98
   3  -5  -7  173.26   19.71
   3   5  -7  159.28   15.60
  -3   5  -8   -3.09    4.22
  -3   5  -8   -0.48    4.00
   3   5   8    2.93    3.47
   3  -5  -8    3.62    4.38
   3   5  -8    0.82    2.05
   3  -5  -8    2.07    4.34
  -3   5  -9  127.75   14.20
  -3   5  -9  117.40   13.50
   3   5   9  107.32   13.76
   3  -5  -9  110.22   14.90
   3   5  -9  110.87   13.54
   3  -5  -9  117.04   14.91
  -3   5 -10   16.95    4.73
  -3  -5 -10   17.96    4.65
  -3   5 -10   17.75    5.13
   3   5  10   14.86    4.74
   3  -5 -10   20.80    6.70
   3   5 -10   25.37    6.36
   3  -5 -10   20.20    6.60
  -3  -5 -11   92.31   11.63
   3   5 -11  101.85   10.29
  -3   5 -11   87.49    9.02
   3  -5 -11  103.75   11.78
  -3   5 -11   88.92    9.55
  -3   5 -12    2.38    1.20
  -3  -5 -12    3.13    1.83
   3   5 -12    1.31    1.10
  -3   5 -12    0.89    1.34
   3  -5 -12    2.91    2.14
  -3  -5 -13  102.51    8.03
   3  -5 -13   94.48    7.35
   3   5 -13  102.38    6.95
  -3   6   0    1.18    2.00
   3  -6   0   -3.02    3.98
   3   6   0    0.40    2.59
   3   6   0    5.10   10.92
  -3   6   1  497.21   55.89
   3  -6   1  450.57   30.54
   3   6   1  353.57   26.84
   3   6   1  436.67   52.71
  -3   6  -1  482.62   55.42
   3   6  -1  508.85   58.90
   3   6   1  450.67   26.56
   3   6  -1  465.43   26.54
   3  -6  -1  488.88   31.63
  -3   6  -1  521.33   28.56
   3  -6  -2    7.59    5.38
   3   6  -2    3.69    7.98
  -3   6  -2   17.01    5.46
  -3   6  -2   -0.89    3.43
   3  -6   2    6.51    3.37
   3   6   2    0.45    6.47
   3   6  -2    6.77    3.33
   3   6   2    7.68    3.12
   3   6  -2    9.39    3.51
  -3   6   2   13.30    5.50
   3   6   2    8.83    6.07
  -3   6  -3  347.34   47.60
   3  -6  -3  376.10   28.84
   3   6  -3  331.15   21.46
   3   6   3  351.96   27.61
  -3   6   3  388.59   51.21
  -3   6  -3  397.50   24.76
   3   6   3  381.65   52.02
   3   6  -3  404.50   53.73
   3   6   3  359.32   24.92
   3   6  -3  365.48   23.91
   3  -6   3  350.84   27.60
  -3   6  -4   -0.81    3.35
   3   6  -4    5.33    6.41
   3  -6   4    2.15    3.86
   3   6  -4   -0.40    1.37
   3  -6  -4    9.21    5.59
  -3   6   4    5.42    6.03
   3   6   4   -0.71    2.49
   3   6  -4   -1.02    4.12
   3   6   4   12.38   12.59
   3   6   4    1.07    2.61
  -3   6  -5  243.36   41.22
   3   6   5  318.85   25.69
  -3   6   5  336.88   25.40
  -3   6   5  300.71   49.50
   3   6   5  285.52   50.06
   3   6  -5  322.52   21.01
   3   6  -5  302.13   21.85
   3   6  -5  291.69   45.36
   3  -6   5  301.32   25.32
   3  -6  -5  284.24   23.87
  -3   6  -5  326.76   23.15
  -3   6  -6    4.63    4.29
   3  -6  -6    9.97    4.43
   3   6   6    5.89    3.19
   3  -6   6   11.97    4.87
  -3   6   6    3.33    2.75
   3  -6  -6    4.00    3.62
   3   6  -6    3.57    2.06
   3   6  -6    6.46    3.51
   3   6   7  261.30   23.20
  -3   6   7  257.75   21.12
  -3   6  -7  261.53   20.24
   3  -6  -7  285.39   23.90
   3   6  -7  252.21   18.96
   3  -6  -7  241.34   21.83
   3   6  -7  240.99   18.87
  -3   6  -7  245.45   19.49
  -3   6  -8   -2.84    3.25
  -3   6  -8    2.53    3.70
   3   6   8   -1.66    4.36
  -3   6   8    0.41    2.02
   3  -6  -8    8.09    4.78
   3   6  -8    3.43    2.11
   3  -6  -8    2.92    2.83
   3   6  -8    4.53    2.89
  -3   6  -9  207.69   16.35
   3   6   9  188.75   17.25
   3  -6  -9  229.55   19.75
   3   6  -9  212.55   16.46
   3  -6  -9  206.94   17.99
  -3   6  -9  200.96   15.81
  -3   6 -10   -0.65    2.93
  -3  -6 -10    5.36    2.44
  -3   6 -10    2.34    2.57
   3  -6 -10    1.23    2.40
   3   6 -10    1.39    2.00
   3   6  10    1.86    3.42
   3  -6 -10    2.20    2.56
  -3  -6 -11  182.79   13.71
   3   6 -11  173.43   11.40
   3  -6 -11  166.04   12.43
  -3   6 -11  159.64   10.86
  -3  -6 -12   -3.62    1.99
   3   6 -12   -0.45    1.15
   3  -6 -12   -2.07    1.10
  -3   7   0   -1.33    7.29
   3  -7   0    1.65    2.22
   3   7   0    3.09    2.43
   3   7  -1  190.59   38.67
  -3   7  -1  200.78   35.86
   3  -7  -1  186.18   19.06
   3   7   1  193.00   16.62
   3   7  -1  204.55   17.56
   3  -7   1  189.15   18.91
  -3   7   1  180.93   34.51
   3   7   1  195.46   19.19
   3   7   1  194.21   37.31
   3   7  -2   86.20   24.64
   3  -7  -2  100.14   13.94
   3  -7   2  102.95   18.37
   3   7   2  100.19   13.78
  -3   7  -2  105.72   27.64
   3   7   2  102.81   12.12
   3   7  -2  101.37   12.18
  -3   7   2  101.56   26.63
   3   7   2   61.95   20.85
  -3   7  -2  111.21   12.73
   3   7   3  134.64   16.04
   3  -7  -3  150.32   17.92
   3   7   3  134.01   13.98
   3   7  -3  131.60   13.93
   3  -7   3  136.38   16.17
  -3   7  -3  144.52   14.40
  -3   7  -4   43.84    8.33
   3  -7  -4   41.79    9.17
  -3   7   4   37.05    8.35
   3   7  -4   34.77    6.62
   3  -7   4   34.64    7.86
   3   7   4   31.41    7.59
   3   7   4   39.87    7.66
   3   7  -4   42.51    7.50
   3   7   5  157.45   16.66
   3  -7   5  165.67   17.65
  -3   7   5  173.43   17.88
   3  -7  -5  167.25   18.15
   3   7  -5  168.13   15.49
   3   7  -5  165.17   14.52
  -3   7  -5  182.86   16.53
  -3   7  -6   47.17    8.28
  -3   7   6   47.22    9.28
   3  -7  -6   44.19    8.64
   3   7   6   45.76    8.90
   3   7  -6   47.27    7.83
   3   7  -6   44.82    7.96
  -3   7   7  166.04   15.98
  -3   7  -7  161.96   14.68
   3   7   7  158.05   15.47
   3   7  -7  148.22   13.32
  -3   7  -7  156.02   14.19
   3  -7  -7  197.54   19.63
   3   7  -7  141.61   13.47
  -3   7  -8   24.28    5.68
   3   7  -8   24.59    5.04
  -3   7  -8   22.58    5.20
   3   7  -8   20.82    5.15
   3   7   8   36.20    7.48
  -3   7   8   25.19    5.38
   3  -7  -8   34.44    8.05
  -3   7  -9   86.19    8.98
   3   7   9   82.13    9.51
   3  -7  -9  100.50   11.88
   3   7  -9   83.42    8.94
  -3   7  -9   74.43    8.24
  -3  -7 -10   41.44    6.31
   3   7  10   45.41    5.90
   3  -7 -10   53.44    6.77
   3   7 -10   46.12    5.71
  -3   7 -10   41.54    5.35
  -3  -7 -11   72.30    6.68
   3   7 -11   68.02    5.56
  -3   7 -11   67.56    5.30
   3  -8   0   -1.47    2.82
   3   8   0    5.66    3.66
  -3   8   1  486.07   28.63
   3   8   1  431.45   26.30
   3  -8  -1  414.65   26.19
   3  -8   1  434.99   27.90
   3   8   1  453.39   24.92
   3   8  -1  457.44   24.82
   3   8   2    0.52    2.18
   3  -8  -2    9.16    4.77
  -3   8   2    2.77    3.19
   3   8  -2   14.81    4.77
   3  -8   2    8.70    3.22
   3   8   2    3.49    2.12
   3   8   3  399.50   25.30
   3  -8  -3  403.57   26.40
   3  -8   3  377.47   25.64
  -3   8   3  426.76   26.12
   3   8   3  371.89   21.52
   3   8  -3  423.21   23.69
  -3   8  -4    0.66    2.68
   3  -8  -4    0.49    2.73
  -3   8   4    5.44    3.62
   3   8   4    0.33    2.02
   3   8   4   -0.90    2.65
   3   8  -4    2.76    3.30
   3  -8   4    4.13    2.99
  -3   8  -5  465.79   23.84
   3  -8  -5  441.02   26.11
   3   8   5  453.81   24.75
   3  -8   5  451.47   26.07
  -3   8  -5  495.68   24.16
  -3   8   5  511.91   27.73
   3   8  -5  447.26   23.10
  -3   8  -6    5.91    3.16
  -3   8  -6    3.91    2.94
   3  -8  -6    2.50    2.77
  -3   8   6    6.65    3.70
   3   8   6    3.09    1.69
   3   8  -6    4.81    3.16
  -3   8  -7  433.84   20.41
   3   8   7  405.06   20.86
  -3   8   7  437.75   22.47
   3  -8  -7  437.18   23.58
   3   8  -7  388.80   18.88
  -3   8  -7  408.31   19.74
  -3   8  -8    3.72    2.57
  -3   8  -8    0.23    1.67
   3   8   8   -0.36    1.75
   3  -8  -8    3.59    3.06
   3   8  -8   -2.03    1.58
   3   8  -8   -1.50    0.81
  -3   8   8    1.79    1.68
  -3  -8  -9  253.97   13.96
   3   8   9  294.76   14.30
   3  -8  -9  291.68   14.31
  -3   8  -9  287.38   12.62
  -3   8  -9  262.56   11.91
  -3   9   0    1.69    2.06
   3   9   0    1.71    2.11
   3  -9   0    0.45    1.87
   3   9  -1   55.17    8.03
  -3   9   1   57.81    9.02
   3   9   1   50.10    7.30
  -3   9  -1   49.11    7.70
   3  -9  -1   50.61    8.29
   3  -9   1   50.46    8.55
  -3   9   2   29.52    6.55
   3  -9  -2   16.67    4.78
   3   9   2   24.59    5.79
  -3   9  -2   19.57    4.91
   3  -9   2   23.56    6.01
   3   9   2   25.21    5.04
   3   9  -2   31.50    5.92
  -3   9  -2   22.40    5.06
  -3   9  -3   37.75    6.14
   3  -9  -3   35.46    6.90
   3   9   3   39.30    7.10
  -3   9   3   37.40    7.17
   3  -9   3   32.41    6.63
   3   9   3   34.41    5.73
   3   9  -3   36.40    5.99
  -3   9  -3   39.88    5.85
  -3   9  -4  162.14   12.36
   3   9   4  157.01   13.09
   3  -9  -4  138.58   12.91
  -3   9   4  159.82   13.64
   3  -9   4  151.28   13.41
   3   9  -4  157.74   12.21
  -3   9  -4  151.02   11.16
  -3   9  -5   79.76    8.09
   3   9   5   65.31    7.80
   3  -9  -5   66.58    8.38
  -3   9   5   76.79    8.98
   3   9  -5   66.67    7.73
  -3   9  -5   66.68    7.25
  -3   9  -6   -0.30    1.49
   3   9   6   -0.30    1.63
  -3   9   6   -0.51    1.47
   3  -9  -6    3.11    3.43
   3   9  -6    0.71    1.72
  -3   9  -6    1.00    1.38
  -3   9  -7   50.23    5.48
   3   9   7   46.60    5.64
  -3   9   7   54.92    6.43
   3  -9  -7   51.32    6.23
   3   9  -7   44.99    5.08
  -3   9  -7   51.27    5.34
   3  -9  -8    0.52    0.73
  -3   9  -8    1.76    1.18
   3 -10   0    0.00    1.54
  -3  10   0   -0.24    1.05
   3  10   0    2.61    1.90
   3 -10  -1  389.39   17.95
   3 -10   1  371.39   17.81
  -3  10   1  414.82   18.62
   3  10   1  385.61   16.30
   3  10  -1  415.79   17.42
   3 -10   2    2.35    2.06
  -3  10   2    4.89    2.71
   3  10   2    1.61    1.34
   3  10  -2   -1.03    1.40
   3 -10  -2    0.44    1.01
   3  10   3  343.72   14.95
   3 -10  -3  365.71   16.19
   3 -10   3  350.32   16.24
   3  10  -3  409.06   16.45
  -3  10   3  424.15   17.84
  -3  10  -4   -0.07    0.58
  -3  10   4    1.09    1.85
   3  10   4    0.29    1.25
   3  10  -4   -0.51    0.86
  -3  10  -4    0.66    1.07
  -3  10  -5  298.88   11.43
   3  10   5  356.86   13.77
  -3  10   5  386.26   14.85
   3  10  -5  370.96   13.73
   3 -10  -5  354.18   14.40
  -3  10  -5  281.03   10.52
   4   0   0 3206.44  130.12
   4   0   0 3190.56  107.70
  -4   0  -1   -1.10    2.77
   4   0  -1    1.29   10.47
   4   0   1    6.76    7.47
   4   0  -1   -3.10    5.65
   4   0  -2 6572.00  201.57
   4   0  -2 6831.41  138.30
   4   0  -3   -2.32    5.40
   4   0  -3   -3.05    3.93
  -4   0  -3   -2.90    3.82
   4   0  -3    8.30   11.09
   4   0  -4 4786.60  181.18
  -4   0  -4 4938.11  152.56
   4   0  -4 4465.71  154.59
   4   0  -5   -3.77    5.93
  -4   0  -5   -4.02    8.01
  -4   0  -6 1137.23   80.73
   4   0  -6 1121.65   88.20
  -4   0  -7   -2.02    2.23
   4   0  -7    1.32    4.28
  -4   0  -7   -1.94    7.13
   4   0  -7   -4.41    6.12
   4   0  -7   -0.08    1.66
   4   0  -7    0.29    2.97
   4   0  -8 2364.71  133.07
  -4   0  -8 2562.89   66.65
   4   0  -8 2528.90   83.36
  -4   0  -8 2515.65  134.23
   4   0  -8 2711.90   93.44
  -4   0  -9   -2.36    2.72
   4   0   9   -5.48    5.28
   4   0  -9   -3.47    5.81
   4   0  -9    1.93    3.79
  -4   0 -10  873.46   38.26
   4   0 -10  940.91   46.99
   4   0 -10  950.36   47.36
  -4   0 -11   -1.42    3.27
   4   0 -11   -1.18    3.79
  -4   0 -12  791.80   32.71
   4   0 -12  789.80   31.71
   4   0 -12  710.07   31.61
   4   0 -13   -3.68    2.79
  -4   0 -13    1.93    1.74
  -4   0 -14  920.73   24.56
   4   0 -14  970.31   25.90
  -4   1   0  358.83   31.18
   4  -1   0  341.03   40.57
   4   1   0  335.06   39.94
   4   1   0  354.05   43.10
  -4   1   1    3.34    3.30
   4   1  -1    2.75    6.39
   4  -1  -1   -1.00    7.94
  -4   1   1    3.94    3.23
  -4   1  -1    0.17    4.77
   4  -1   1   -3.20    5.13
   4   1   1  -10.07   12.03
   4   1  -1   -5.36    8.69
  -4   1  -2  168.85   26.83
   4   1  -2  179.86   34.01
   4  -1  -2   99.89   23.46
   4   1  -2  120.48   23.28
   4   1   2  143.86   28.71
  -4   1   2  144.90   21.91
  -4  -1  -2  128.91   18.81
   4  -1  -2  160.41   32.93
  -4   1  -3   10.45    7.77
   4   1  -3    9.07    9.08
  -4   1   3   12.08    8.00
   4  -1  -3   11.71    7.78
   4   1  -3   25.83   15.77
   4  -1  -3   13.73   10.60
  -4  -1  -3    8.06    5.30
   4   1  -4   48.74   14.55
  -4   1  -4   41.20   12.15
   4   1  -4   51.49   19.00
   4   1  -4   44.72   16.89
   4  -1  -4   41.89   15.49
  -4  -1  -4   40.77   12.91
  -4  -1  -5    9.02    5.09
   4   1  -5    5.90    9.79
  -4   1  -5    9.25    8.00
   4   1  -5    3.93    6.77
   4  -1  -5    6.33    4.42
  -4  -1  -6    2.21    6.26
   4  -1  -6   13.70   11.40
  -4   1  -6    5.14    8.03
   4   1  -6    8.56    9.24
  -4   1  -7    0.90    1.66
  -4  -1  -7    7.89   10.39
   4  -1   7    1.24    2.66
   4   1   7   -0.18    1.79
   4   1  -7    0.42    3.49
   4  -1  -7   -0.40    3.54
   4   1  -7    3.82    3.16
   4  -1  -7    1.93    2.26
   4  -1  -7   -1.05    7.36
  -4   1  -7   -1.67    5.98
   4   1  -7    4.34    3.22
  -4  -1  -7   -7.29    8.74
   4  -1  -7    4.50    4.40
   4   1  -7   -1.58    2.01
  -4   1  -8    7.55    5.30
  -4  -1  -8    1.10    3.30
   4   1  -8    6.54    6.58
   4  -1   8   -1.07    2.54
  -4  -1  -8   -6.45   11.14
   4   1  -8    7.51    5.49
   4  -1  -8    5.60    6.11
   4   1  -8    9.12    4.40
  -4   1  -8   -1.45    7.40
   4   1   8    1.08    2.38
   4  -1  -8   -8.06    8.63
   4  -1  -8    8.07    4.36
   4   1  -8    5.52    2.44
  -4   1  -9   -0.59    3.74
  -4  -1  -9    6.43    4.90
   4   1  -9    7.79    3.28
   4   1  -9   -1.29    2.61
   4  -1  -9   -2.41    3.45
   4  -1  -9    7.93    6.58
   4   1 -10   -3.63    4.20
  -4   1 -10    0.40    2.31
  -4  -1 -10    0.76    2.72
   4  -1 -10   -4.38    3.47
   4   1 -10   -6.36    2.89
   4   1 -10    6.37    5.94
   4  -1 -10   -2.55    5.48
   4   1 -11    4.11    2.11
  -4   1 -11    2.70    3.15
  -4  -1 -11    1.04    3.48
   4  -1 -11  131.25   18.97
   4   1 -11  106.79   18.36
   4   1 -11    0.85    3.52
   4  -1 -11    2.23    3.08
   4   1 -12   -3.40    2.66
  -4   1 -12   -0.98    2.06
  -4  -1 -12    3.37    3.41
   4   1 -12    2.07    1.51
   4  -1 -12   -2.91    3.88
   4   1 -13    5.82    2.85
  -4   1 -13    6.07    2.52
   4  -1 -13   -0.90    2.39
  -4  -1 -13    2.87    1.47
   4  -1 -13    7.64    3.12
  -4   1 -14    2.30    1.30
  -4  -1 -14    2.61    1.59
   4   2   0 2937.02  118.60
   4  -2   0 3070.10  118.51
  -4   2   0 3055.98  112.33
   4   2   0 3110.55  130.20
   4   2   1    8.53    6.66
   4   2  -1   14.40   10.70
   4  -2  -1   12.88   10.20
  -4   2  -1   18.38   10.53
   4   2   1   16.26   11.87
   4   2  -1   17.70   11.11
  -4   2   1   10.84    6.46
   4   2   2 3658.19  146.57
  -4   2  -2 3612.78  125.10
  -4   2   2 3569.02  133.80
   4  -2  -2 3698.43  139.68
  -4  -2  -2 3336.79  100.71
   4   2  -2 3640.56  148.04
   4   2  -2 3507.14  138.61
  -4  -2  -3    9.42    5.89
   4   2  -3    2.26    6.68
  -4   2   3    2.93    6.64
   4  -2  -3    2.31    8.62
   4  -2  -3    3.45    3.14
   4   2   3    5.37    9.15
  -4   2  -3    1.59    4.28
   4   2  -3   -0.73    7.94
  -4   2  -4 4006.91  153.55
  -4  -2  -4 3757.55  130.71
   4  -2  -4 3986.61  164.81
  -4   2   4 3826.56  166.44
   4   2  -4 3729.03  142.86
  -4   2  -5   16.49    9.56
   4   2  -5    2.37    4.42
  -4  -2  -5    4.20    3.35
  -4   2   5    9.82    8.94
   4  -2  -5   21.24   16.79
  -4   2  -6 1528.58   51.48
  -4   2  -6 1651.73  105.16
   4  -2  -6 1754.54   77.68
   4   2  -6 1829.55  108.98
  -4  -2  -6 1815.26  106.85
   4   2  -7   19.76    4.51
  -4   2  -7   19.32    5.81
  -4  -2  -7   16.90    5.87
   4   2   7   24.05    7.21
   4  -2   7   21.06    6.25
   4   2  -7   29.61   10.62
   4  -2  -7   19.14    7.98
   4  -2  -7   42.06    9.21
   4   2  -7   14.55    5.97
   4  -2  -7   13.81   11.57
   4   2   7   18.76    6.29
  -4  -2  -7   42.12   19.39
   4  -2  -7   19.50    9.84
   4   2  -7   22.86    5.92
  -4   2  -7   18.97   12.96
  -4   2  -8 2414.91   65.88
  -4  -2  -8 2389.98   67.12
   4   2  -8 2504.60   65.59
   4  -2  -8 2306.21   75.67
   4   2   8 2188.46   62.12
  -4   2  -8 2146.10  130.06
  -4  -2  -8 2107.53  128.04
   4   2  -8 2469.63   78.15
   4  -2  -8 2231.39  144.25
   4  -2  -8 2181.75   57.77
   4   2  -8 2305.54   73.12
   4   2  -8 2224.39   58.76
   4  -2   8 2201.26   64.50
   4   2  -9   -1.35    3.50
  -4   2  -9   -2.62    2.87
  -4  -2  -9   -0.64    2.46
   4   2  -9   -1.95    3.21
   4  -2  -9   -0.58    2.73
   4   2  -9    0.17    4.27
   4  -2  -9   -1.14    5.37
   4   2   9    0.90    2.48
  -4   2 -10 1270.38   45.11
  -4  -2 -10 1251.83   46.94
   4   2 -10 1339.95   44.93
   4  -2 -10 1351.91   51.42
   4   2 -10 1424.80   55.28
   4   2 -10 1407.05   53.85
   4  -2 -10 1458.90   62.79
   4   2 -11   -1.61    3.60
  -4   2 -11    6.79    4.02
  -4  -2 -11    2.62    2.39
   4   2 -11    4.96    3.75
   4  -2 -11    3.99    3.03
  -4   2 -12 1109.24   35.53
  -4  -2 -12 1184.15   40.14
   4   2 -12 1073.15   33.86
   4   2 -12 1065.44   35.47
   4  -2 -12 1157.73   43.87
  -4   2 -13    1.25    1.14
  -4  -2 -13    3.23    2.38
   4   2 -13   -0.93    1.11
   4  -2 -13   -1.22    2.22
   4  -2 -14  715.62   21.72
   4   3   0  107.04   23.05
   4   3   0  110.79   24.92
  -4   3   0  116.25   25.71
  -4   3  -1    9.52    8.72
   4   3   1    9.17    9.45
   4   3  -1    3.65    4.49
  -4   3  -1   -1.52    6.42
   4   3   1   12.20   10.51
  -4   3   1    4.49    4.14
   4   3  -1    3.30    5.48
   4   3  -2   40.70   17.69
   4   3   2   42.17   14.88
   4  -3  -2   39.23   15.05
   4   3  -2   66.21   21.51
  -4   3  -2   36.15   13.47
   4   3   2   39.88   16.07
  -4   3   2   26.95   13.68
   4   3  -3   15.10   12.56
   4  -3  -3    8.31    5.13
   4   3  -3   20.79   12.62
  -4   3  -3   29.33   13.94
  -4   3   3    3.17    6.10
   4   3   3   11.38   11.45
   4   3  -4   12.79    5.34
  -4  -3  -4   29.92   14.75
  -4   3   4   16.36   10.49
   4   3   4   36.35   16.34
  -4   3  -4   12.63   11.38
   4  -3  -4    8.30    8.38
  -4  -3  -5    6.21    6.84
   4   3  -5   16.18   10.02
   4  -3  -5   30.41   17.25
  -4   3   5   24.99   12.40
   4   3   5    0.48    6.35
  -4   3  -5   19.18   11.90
   4   3  -6    1.92    4.07
  -4   3  -6   11.54    4.86
  -4   3  -6    1.11    3.28
   4   3  -6    6.50    7.83
   4   3   6   -2.44    7.23
   4  -3   6    6.58    3.80
   4   3  -6    5.29    3.26
   4  -3  -6   16.43   16.96
   4  -3  -6   10.82    3.06
   4   3  -6   15.73    6.35
  -4   3   6   -7.81    8.57
   4   3   6   22.54    6.97
   4   3   6   11.26    5.10
  -4  -3  -6    6.67    7.47
   4  -3  -6    7.33    2.74
   4   3  -7   -0.93    5.11
  -4   3  -7    8.37    4.80
  -4   3  -7   14.63   11.28
   4  -3   7    5.63    2.62
   4   3   7    7.32    3.44
   4  -3  -7   -1.32    6.02
   4  -3  -7   10.17    5.21
   4   3  -7   13.66    5.92
   4   3   7    5.23    5.03
   4  -3  -7    2.57    3.11
  -4  -3  -7   -2.18   10.59
   4   3  -8   -2.77    4.79
  -4   3  -8    3.25    3.19
  -4  -3  -8  -10.75   10.38
  -4  -3  -8    4.44    4.32
  -4   3  -8   -5.51    4.11
   4   3   8    1.83    2.99
   4   3  -8   -0.40    3.76
   4  -3  -8    2.11    2.21
   4   3  -8    4.10    3.36
   4   3   8    9.67    5.24
   4  -3  -8    3.08    7.13
   4   3  -8    5.06    3.50
   4   3  -9   -3.31    3.54
  -4   3  -9    3.81    3.36
  -4  -3  -9   -0.97    2.62
   4   3  -9    4.66    4.56
   4  -3  -9   10.23    4.29
   4   3  -9    4.77    3.62
   4   3   9   -0.36    2.49
   4  -3  -9    7.08    6.84
   4   3 -10   10.01    5.77
  -4   3 -10    0.19    2.00
  -4  -3 -10    1.49    2.86
   4   3  10    7.41    4.05
   4   3 -10    7.96    4.75
   4  -3 -10    2.97    3.43
  -4   3 -11    5.51    2.63
  -4  -3 -11   -1.31    3.19
   4   3 -11    9.94    5.32
   4  -3 -11   -5.24    5.11
  -4   3 -12    9.29    2.97
  -4  -3 -12    4.33    2.96
   4   3 -12    8.99    3.51
   4  -3 -12    1.55    2.12
  -4   3 -13    4.82    2.09
   4  -3 -13    3.65    1.87
  -4  -3 -13   -0.54    1.31
   4   3 -13    2.62    1.56
  -4   4   0 3364.84  149.56
   4   4   0 3459.78  139.41
   4   4   0 3060.24  136.06
  -4   4  -1   11.81   12.53
   4   4  -1    3.12    5.35
   4   4   1   -2.31    6.31
   4   4   1    6.29   10.94
  -4   4   1    9.53   11.43
   4   4  -1   10.72    9.82
  -4   4  -2 1235.66   86.59
   4   4   2 1289.91   80.61
   4   4  -2 1319.77   90.73
   4   4   2 1299.30   93.93
   4   4  -2 1187.22   87.93
  -4   4   2 1206.24   89.41
   4   4  -3   -8.02    6.54
   4   4   3   -1.02    6.92
  -4   4  -3   -3.88    5.39
  -4   4   3   -2.50    8.74
   4   4   3  -15.48   10.73
  -4   4  -4 1882.27   56.76
  -4   4  -4 1721.75  103.88
   4   4   4 1948.93   70.20
  -4   4   4 1991.06  120.75
   4  -4  -4 1884.53  111.47
   4   4  -4 1725.93   52.36
   4   4   4 2065.52  127.59
   4  -4  -4 1712.61   64.30
   4   4  -4 1750.03  111.38
   4   4   4 2019.58  109.57
   4  -4   4 1768.34   59.76
   4   4   4 1590.58   51.69
  -4   4  -5    2.94    3.78
   4   4  -5   12.04   14.16
   4   4   5    0.16    3.61
   4   4   5  -17.32   11.30
   4  -4  -5    6.36    7.54
   4   4  -5   -2.89    2.08
  -4   4   5   -9.45    9.03
   4   4   5    0.18    3.94
   4   4   5  -21.66   14.09
   4  -4   5   -1.44    1.79
  -4   4  -5    2.31    5.33
   4  -4  -5    1.66    3.72
  -4   4  -6 2279.18   64.43
   4   4  -6 1937.84   56.99
   4   4   6 2386.39  156.30
   4   4   6 1914.64  126.81
  -4   4  -6 1650.28  110.75
   4   4   6 2213.75   72.06
  -4   4   6 1768.78  124.10
   4   4  -6 1680.34   58.87
   4  -4   6 2012.28   64.16
   4  -4  -6 2125.17  150.78
   4  -4  -6 2173.31   63.68
   4   4  -6 2113.26   62.10
   4  -4  -6 2032.44   73.99
   4   4   6 1951.56   63.03
   4   4  -6 1896.02  124.87
  -4   4  -7    3.72    3.51
  -4   4  -7   -4.77    6.44
   4   4  -7    5.50    4.32
   4  -4   7    3.07    3.88
   4   4   7  -16.22   12.55
   4   4  -7    5.10    3.84
   4  -4  -7  -16.26   13.94
   4  -4  -7   -0.47    4.09
   4   4  -7   -2.40    2.03
   4   4   7   -2.01    2.30
   4   4   7   -4.93   13.51
   4   4   7   -1.47    2.97
   4  -4  -7   -2.08    2.84
  -4   4  -8 1316.07   46.80
   4   4  -8 1293.34   47.25
  -4  -4  -8 1332.35   52.57
  -4   4  -8 1176.39   45.58
   4   4   8 1367.45   53.33
   4   4  -8 1332.28   50.97
   4  -4  -8 1382.58   52.28
   4   4  -8 1379.64   50.46
   4  -4  -8 1270.67   56.78
   4   4  -8 1185.34   41.44
  -4   4  -9    2.97    2.93
  -4  -4  -9    2.00    3.72
  -4   4  -9    5.49    3.95
   4  -4  -9    3.36    2.69
   4   4  -9    6.38    5.32
   4   4   9   -0.30    4.33
   4  -4  -9    5.74    5.15
  -4   4 -10 1259.77   41.49
  -4  -4 -10 1223.88   45.39
   4   4  10 1202.88   42.33
   4  -4 -10 1217.31   47.89
  -4   4 -11    0.94    2.02
  -4  -4 -11    0.27    2.26
   4   4 -11   -2.36    2.02
   4  -4 -11    0.29    2.49
  -4  -4 -12 1204.61   35.66
   4   4 -12 1180.03   31.57
   4  -4 -12 1156.72   35.08
  -4   4 -12 1115.64   30.51
  -4   4 -13   -0.13    0.98
  -4  -4 -13    0.76    1.41
   4   4 -13   -3.31    1.55
   4  -4 -13    2.03    1.59
   4   5   0    9.77    8.10
   4  -5   0    9.75    3.40
   4   5   0   19.42    6.89
   4   5   0   13.80    6.71
  -4   5   0   17.93   13.56
  -4   5  -1    1.55    4.12
  -4   5  -1    1.76    3.24
   4  -5  -1    1.94    2.87
   4  -5   1   -0.27    2.45
   4   5   1   -2.66    5.53
   4   5  -1   -2.29    2.69
   4   5   1    4.68    3.02
   4   5  -1    0.13    2.74
   4   5  -1   -6.97    6.80
  -4   5   1   -3.55    6.64
   4   5  -1   -2.46    9.33
   4   5  -2   46.21   19.05
  -4   5  -2   44.44    8.46
   4   5   2   37.81    8.41
   4  -5  -2   49.44   10.67
   4   5   2   49.34   13.75
   4  -5   2   54.50   10.96
  -4   5  -2   40.56   16.66
   4   5  -2   38.59    7.74
   4   5  -2   39.18    8.63
  -4   5   2   47.22   18.59
   4   5   2   42.86   20.27
   4   5  -3    1.92    8.69
  -4   5  -3    3.50    3.52
   4   5  -3    0.40    1.85
  -4   5  -3    2.02    5.58
   4  -5   3    0.80    2.52
   4   5   3   -0.41    1.91
  -4   5   3   -5.23    6.80
   4   5  -3    2.90    3.90
   4   5   3    1.48    6.35
   4   5   3   -0.20    5.82
   4  -5  -3    2.81    3.80
   4  -5  -3   -0.27    2.03
   4   5  -4   71.28   23.70
   4   5   4   66.20   11.08
   4  -5  -4   62.81   11.98
   4   5   4   92.18   16.95
   4   5  -4   64.04   10.06
  -4   5  -4   40.67   16.26
  -4   5   4  110.54   32.30
   4   5  -4   72.48   11.99
   4   5   4   96.08   28.76
   4  -5   4   65.67   11.85
   4  -5  -4   68.98   12.74
  -4   5  -4   70.45   10.91
  -4   5  -5    3.03    3.93
   4   5  -5    2.93    5.59
   4   5   5    5.55    5.17
   4  -5   5    4.61    3.20
   4   5  -5    0.20    1.87
   4   5   5    5.14    3.85
  -4   5   5   -0.63   10.47
   4   5  -5    1.85    3.07
   4   5   5   -4.40    6.95
  -4   5  -5    2.49   11.74
   4  -5  -5    0.04    3.59
   4   5   6   88.04   14.58
   4   5  -6   89.00   12.16
   4  -5   6   85.71   13.57
   4   5   6   79.56   12.81
  -4   5   6   40.84   18.75
   4   5  -6   62.01   10.45
   4  -5  -6   79.17   14.35
  -4   5  -6   87.88   12.61
  -4   5  -7   -2.73    3.04
   4  -5   7    7.73    4.85
   4   5   7   -2.07    3.65
   4  -5  -7    1.17    2.98
   4   5  -7    2.13    1.87
   4  -5  -7    5.85    3.46
  -4   5  -8  147.22   14.91
   4   5   8  145.17   17.30
   4  -5  -8  161.83   17.77
   4   5  -8  134.33   14.88
   4  -5  -8  138.70   17.50
  -4   5  -8  141.51   15.41
  -4   5  -9    1.21    2.69
  -4  -5  -9    2.32    2.90
  -4   5  -9    5.70    3.78
   4   5   9    3.31    3.47
   4   5  -9    8.15    5.21
   4  -5  -9    9.82    6.21
   4  -5  -9    8.28    3.83
  -4  -5 -10   94.34   11.90
  -4   5 -10   99.13   10.04
   4   5  10   83.90   10.14
   4  -5 -10   93.51   11.44
   4   5 -10   97.57   10.92
   4  -5 -10   78.83   10.43
  -4   5 -10   78.89    9.63
  -4   5 -11    0.19    1.15
   4   5 -11    2.68    1.80
  -4   5 -11   -0.15    1.35
  -4  -5 -12   35.51    5.31
   4   5 -12   36.08    4.65
   4  -5 -12   40.70    5.72
  -4   5 -12   38.35    4.77
   4  -6   0 2229.75   68.75
  -4   6   0 2248.00  124.63
   4   6   0 2376.35  128.37
   4   6   0 2418.44   64.74
  -4   6   0 2519.20   61.26
   4   6  -1    2.98    4.50
  -4   6  -1    5.28    3.06
  -4   6  -1   10.16    6.94
   4  -6   1    1.37    2.89
   4   6   1    3.04    3.66
   4   6  -1    3.36    1.33
   4  -6  -1    3.02    2.29
   4   6   1    8.47    2.81
   4   6  -1    5.22    3.10
   4   6   1   -6.34    4.76
  -4   6  -2  716.13   71.07
   4   6   2  781.91   42.40
   4  -6  -2  832.36   42.93
   4  -6   2  879.73   45.17
  -4   6   2  821.55   78.62
   4   6   2  786.68   74.21
   4   6  -2  817.93   77.27
   4   6  -2  818.67   35.06
   4   6   2  891.82   40.13
   4   6  -2  758.84   36.60
  -4   6  -2  917.90   38.11
  -4   6  -3    3.90    3.23
   4   6  -3   -2.89   12.30
   4  -6  -3    0.09    2.60
   4  -6   3    4.37    4.06
   4   6  -3   -1.62    2.20
  -4   6  -3  -14.39   10.02
   4   6   3    1.26    3.13
   4   6   3    1.36    3.22
   4   6  -3    9.24    4.76
  -4   6   3   21.19   14.38
   4   6   3   -5.59    6.83
   4  -6  -4 1320.96   53.91
   4  -6   4 1237.29   51.55
   4   6   4 1207.64   50.54
   4   6  -4 1279.84   43.18
   4   6   4 1224.05   46.82
   4   6  -4 1251.84   49.08
  -4   6  -4 1226.22   43.89
  -4   6  -5    3.99    2.75
   4  -6   5    5.75    8.65
   4   6   5    6.32    4.25
   4   6  -5    4.33    2.66
   4   6   5    1.58    1.79
   4   6  -5   -0.20    2.63
   4  -6  -5    5.22    2.76
   4  -6  -5    5.83    4.44
   4   6   6 1567.48   55.58
   4  -6   6 1525.19   55.28
  -4   6   6 1545.16   52.44
   4   6  -6 1564.23   48.30
   4  -6  -6 1501.22   57.46
   4   6   6 1492.89   51.60
   4   6  -6 1410.75   47.64
  -4   6  -6 1580.92   50.40
  -4   6  -7   14.54    5.32
   4   6   7    1.14    2.40
   4  -6   7    9.65    4.65
   4   6  -7    6.13    3.43
  -4   6   7   12.10    4.93
   4  -6  -7    7.65    5.00
   4   6  -7    9.35    4.71
   4  -6  -7    9.90    4.75
  -4   6  -8  802.46   32.61
   4   6   8  839.13   37.95
   4   6  -8  759.22   31.49
   4  -6  -8  754.77   35.65
  -4   6  -8  780.95   32.22
  -4   6  -9   -3.14    3.30
  -4  -6  -9    2.61    1.86
   4  -6  -9    5.57    5.10
  -4   6  -9    2.22    1.63
   4   6   9    1.17    2.58
   4   6  -9   -0.03    1.79
   4  -6  -9    0.45    2.14
  -4  -6 -10  739.92   28.28
  -4   6 -10  744.97   24.59
   4   6  10  778.59   27.90
   4  -6 -10  844.46   29.85
   4   6 -10  822.80   27.14
   4  -6 -10  748.53   28.45
  -4   6 -10  722.84   24.63
  -4   6 -11    0.92    1.34
  -4  -6 -11   -0.24    1.27
   4   6 -11    0.54    1.05
   4  -6 -11    0.82    1.34
   4  -7   0   23.89    6.83
   4   7   0   30.95    7.39
   4  -7  -1    0.08    2.50
   4   7   1    2.60    3.19
   4   7   1    4.95    3.28
   4   7  -1    1.36    3.54
   4  -7   1   -2.54    4.48
   4   7   2   84.27   12.80
   4  -7   2   69.86   12.11
   4   7   2   75.93   10.86
   4   7  -2   77.05   10.85
   4  -7  -2   83.68   12.54
  -4   7  -2   83.47   10.91
  -4   7  -3    2.01    2.70
   4   7   3    3.21    4.04
   4  -7  -3   11.99    6.44
   4   7  -3   -0.84    1.67
   4  -7   3    1.26    3.61
   4   7   3    1.54    2.40
   4   7  -3    3.25    3.82
   4  -7   4   74.74   11.75
   4  -7  -4   63.08   10.72
   4   7   4   74.67   11.54
   4   7  -4   85.64   10.66
   4   7   4   80.30   11.14
   4   7  -4   66.15   10.25
  -4   7  -4   80.15   10.45
  -4   7  -5    1.02    2.67
   4  -7   5    2.83    2.85
   4   7   5    0.45    3.25
  -4   7   5    0.65    3.33
   4  -7  -5    9.62    4.56
   4   7  -5   -2.43    2.13
   4   7   5   -0.93    1.95
   4   7  -5    1.82    2.89
  -4   7  -6   49.89    8.08
   4  -7   6   57.73    9.56
   4   7   6   46.12    8.63
   4   7  -6   44.54    7.41
   4   7  -6   53.57    9.00
  -4   7   6   59.27    9.38
   4   7   7    3.37    3.99
  -4   7  -7    0.14    1.78
  -4   7  -7   -1.74    2.65
   4  -7  -7    2.83    2.70
   4   7  -7    1.41    1.55
   4   7  -7    1.48    2.68
  -4   7   7    1.65    1.98
  -4  -7  -8   88.07   10.63
  -4   7  -8  116.73   10.97
   4   7   8  106.44   11.28
   4  -7  -8  113.43   12.95
   4   7  -8   99.30   10.10
   4  -7  -8   70.02    8.71
  -4   7  -8   99.76    9.95
  -4   7  -9    2.81    1.93
  -4  -7  -9    4.88    2.90
  -4   7  -9    7.44    2.81
   4  -7  -9   13.43    4.09
   4   7  -9    8.36    2.99
   4  -7  -9    9.02    2.87
   4   7   9    6.01    2.44
  -4  -7 -10   38.75    5.17
   4   7  10   45.96    5.30
   4   7 -10   54.24    5.67
  -4   7 -10   54.25    5.42
   4  -8   0 1236.84   44.27
   4   8   0 1353.38   42.59
   4  -8   1    6.23    4.62
   4   8   1    2.03    2.54
   4  -8  -1   -0.14    1.89
   4   8   1    1.17    2.59
   4   8  -1   -2.66    2.78
   4   8   2  859.43   35.98
   4  -8  -2  919.25   38.20
   4  -8   2  815.86   36.38
   4   8   2  874.09   33.40
   4   8  -2  925.89   34.63
   4  -8  -3    2.10    2.31
   4  -8   3   -0.01    2.69
   4   8   3    3.44    3.44
  -4   8   3   -2.46    3.06
   4   8   3    2.78    1.67
   4   8  -3    2.17    2.69
   4   8   4  941.84   36.17
   4  -8  -4 1022.64   40.11
   4  -8   4  861.10   35.71
  -4   8   4 1000.43   38.26
   4   8   4  941.37   32.88
   4   8  -4  945.06   33.82
  -4   8  -4  983.46   32.84
  -4   8  -5    6.68    3.39
   4  -8  -5    2.15    2.29
   4  -8   5    3.06    2.67
   4   8   5   -1.62    1.55
  -4   8   5    0.76    2.63
   4   8  -5    3.51    2.86
  -4   8  -6  661.12   25.96
   4   8   6  579.45   24.76
   4  -8  -6  568.46   25.01
   4  -8   6  568.32   25.30
  -4   8   6  678.47   28.74
   4  -8  -6  717.81   30.50
   4   8  -6  582.65   22.40
   4   8  -6  618.40   24.61
  -4   8  -6  618.88   23.80
  -4   8  -7    1.54    1.73
  -4   8  -7   -0.01    1.69
   4   8   7   -0.34    1.53
   4  -8  -7    6.11    4.17
   4   8  -7    1.66    1.44
  -4   8   7    0.74    1.63
   4   8  -7   -0.34    1.20
  -4   8  -8  512.28   18.48
   4   8   8  485.34   18.97
  -4   8   8  371.98   15.55
   4  -8  -8  515.72   20.38
   4   8  -8  416.23   16.15
  -4   8  -8  473.22   17.09
   4   8   9   -0.72    1.17
   4  -8  -9    0.64    0.96
  -4   8  -9    2.26    1.06
   4  -9   0  140.33   13.11
  -4   9   0  161.02   13.79
   4   9   0  152.35   12.53
   4  -9  -1    2.38    2.60
  -4   9  -1   -0.17    1.95
  -4   9   1   -5.94    3.20
   4   9   1    3.84    1.90
   4   9  -1   -4.17    3.33
   4  -9   1    3.73    2.31
   4   9   2  131.22   11.33
   4  -9  -2  124.53   11.84
  -4   9  -2  127.91   11.47
   4  -9   2  137.85   12.83
  -4   9   2  151.14   13.14
   4   9   2  136.47   11.75
   4   9  -2  145.53   11.99
  -4   9  -3    0.70    1.24
   4  -9  -3    1.78    2.62
   4   9   3    1.30    1.78
  -4   9   3   -1.31    2.51
   4   9   3    4.12    1.90
   4   9  -3    0.38    2.14
   4  -9   3    4.04    2.04
  -4   9  -4  113.43    9.67
   4   9   4  108.49   10.01
   4  -9  -4  105.42   10.30
   4  -9   4  103.04   10.14
  -4   9   4  115.05   10.99
   4   9  -4  103.60    9.33
  -4   9  -4   95.65    7.80
  -4   9  -5    2.22    1.11
   4  -9  -5    0.49    1.21
  -4   9   5    1.56    2.06
   4  -9  -5    7.84    3.83
   4   9  -5    4.02    1.21
  -4   9  -5    2.76    1.31
   4   9   5    4.50    2.52
   4  -9   5    0.82    1.16
  -4   9  -6   78.15    7.07
   4   9   6   67.79    6.71
  -4   9   6   72.88    7.37
   4  -9  -6   73.55    7.65
   4   9  -6   61.86    6.12
  -4   9  -6   67.38    5.92
  -4   9  -7    1.95    1.34
   4   9   7    2.13    1.46
   4  -9  -7    0.72    1.05
  -4   9  -7    2.92    1.22
   4 -10   0  251.21   13.51
  -4  10   0  241.34   12.86
   4  10   0  264.84   12.88
   4 -10  -1   -0.33    1.19
   4 -10   1    1.21    1.59
  -4  10  -1    1.93    1.55
  -4  10   1    4.91    2.21
   4  10   1   -0.20    1.19
   4  10  -1    3.48    1.92
   4 -10  -2  363.36   14.95
   4 -10   2  395.71   16.31
  -4  10   2  415.01   16.89
   4  10  -2  402.42   15.51
   4 -10  -3    1.20    0.90
  -4  10   3    0.90    1.05
   4 -10   3    2.28    1.51
   4  10  -3   -0.25    0.72
   4  10  -4  410.90   13.99
  -4  10   4  412.37   14.51
   5   0   0   -2.94    6.34
   5   0  -1    7.21    8.62
   5   0   1   -9.01   11.50
   5   0  -2   50.20   18.84
   5   0   2   56.14   17.80
   5   0  -3    2.85    5.15
  -5   0  -3    3.00    5.91
   5   0   3   -5.03    6.55
  -5   0  -4   42.36   17.51
   5   0  -4   62.64   26.33
   5   0  -5   -1.85    8.86
   5   0  -5   -1.26    3.64
  -5   0  -5   -0.26    3.51
   5   0   5    3.08    3.80
  -5   0  -6   32.46    7.67
   5   0   6   48.38    9.20
   5   0  -6   51.46   14.97
   5   0  -6   39.00   18.44
  -5   0  -6   34.33   15.11
   5   0  -6   40.71    7.72
   5   0  -6   39.99   11.60
  -5   0  -7    1.72    3.62
   5   0   7    2.85    2.80
   5   0  -7   -3.64    5.71
   5   0  -7    2.83    3.44
   5   0  -7   -0.61    5.10
  -5   0  -7  -14.14   10.42
  -5   0  -8   14.75    5.78
  -5   0  -8   30.43   15.57
   5   0   8   23.96    7.02
   5   0   8   24.99    6.20
   5   0  -8    8.08    5.68
   5   0  -8   30.01   11.50
  -5   0  -9   -2.19    4.79
   5   0   9   -0.24    2.11
   5   0  -9   -2.79    6.41
   5   0  -9    3.43    5.50
  -5   0 -10   -3.56    3.58
   5   0  10    5.63    4.44
   5   0 -10   -0.72    3.30
   5   0 -10    3.11    3.51
   5   0 -11   -4.08    3.47
  -5   0 -11   -1.47    2.45
   5   0 -11   -0.96    3.11
   5   0 -12   -1.34    2.60
  -5   0 -12    1.69    1.51
   5   0 -13   -3.18    1.88
  -5   0 -13    0.16    1.52
   5   1   0    2.33    4.76
   5  -1   0   -4.54    8.61
   5   1   0    5.23    9.44
   5   1  -1 1144.63   88.02
   5  -1  -1 1280.04   92.48
   5   1   1 1268.83   94.11
   5   1   1 1136.90   84.60
   5  -1   1 1194.97   90.19
   5   1  -1 1163.23   77.52
   5   1  -2   -2.12    6.72
  -5   1  -2    8.16    6.65
   5  -1  -2    1.59    5.74
   5   1  -2    8.84   10.91
   5   1   2    9.34   11.21
  -5   1  -3 1352.95   85.22
   5  -1  -3 1295.79   97.54
   5   1  -3 1196.62   96.17
   5   1   3 1341.57   99.93
   5   1  -3 1202.86   77.14
   5   1  -4  116.94   30.89
   5  -1  -4  111.64   29.73
   5   1   4  132.92   35.40
  -5   1  -4  118.07   27.01
   5  -1   5  613.92   32.22
   5   1   5  651.90   35.67
   5   1   5  723.45   37.68
  -5  -1  -5  783.91   69.64
   5  -1   5  680.68   35.54
   5  -1  -5  712.75   48.46
   5  -1  -5  761.52   80.99
  -5   1  -5  713.18   67.69
   5  -1  -5  655.96   48.08
   5  -1  -5  631.50   30.96
   5   1  -5  669.72   32.15
   5   1  -5  691.66   45.41
  -5   1  -6   38.00    8.37
  -5  -1  -6   30.41    8.06
  -5  -1  -6   37.49   16.65
   5   1   6   51.33    9.92
   5  -1   6   39.85    8.55
   5   1  -6   62.25   14.21
   5  -1  -6   53.97   14.59
   5  -1  -6   66.27   26.67
  -5   1  -6   58.95   21.78
   5   1  -6   47.71   11.96
   5   1   6   56.75   10.87
   5   1  -6   58.78    9.88
   5  -1  -6   51.72   15.22
  -5   1  -7  575.33   33.21
  -5  -1  -7  497.24   31.16
   5   1   7  561.75   32.33
  -5   1  -7  522.27   63.67
  -5  -1  -7  493.16   61.43
   5  -1   7  602.00   33.80
   5   1  -7  582.02   43.90
   5  -1  -7  730.31   52.04
   5  -1  -7  527.14   71.01
   5   1  -7  670.10   48.27
   5  -1  -7  609.31   47.75
   5   1  -7  596.84   32.50
  -5   1  -8   24.60    6.73
  -5  -1  -8   17.11    6.26
   5  -1   8   25.03    7.19
   5   1   8   18.59    6.21
   5   1  -8   15.24    3.10
   5  -1  -8   20.74    5.62
   5   1  -8   26.95    9.91
   5  -1  -8   26.70    8.62
   5   1  -8   20.98    5.84
  -5   1  -9  491.15   29.70
  -5  -1  -9  457.92   29.43
   5   1  -9  501.05   28.62
   5   1   9  485.45   28.73
   5   1  -9  513.31   35.49
   5  -1  -9  529.17   37.10
   5  -1   9  559.88   33.14
   5   1  -9  582.23   39.77
   5  -1  -9  475.09   39.25
   5   1  -9  436.20   25.51
   5   1 -10   14.48    4.21
  -5   1 -10   14.75    5.63
  -5  -1 -10   17.73    5.65
   5   1  10   23.20    7.03
   5  -1 -10   29.46    8.95
   5   1 -10   31.42    9.32
   5   1 -10   24.04    7.61
   5  -1 -10   21.74    8.34
  -5   1 -11  306.28   20.23
  -5  -1 -11  325.18   21.90
   5   1 -11  301.67   19.21
   5  -1 -11  395.53   27.90
   5   1 -11  400.64   27.66
   5  -1 -11  316.70   24.58
   5   1 -12   -3.04    2.71
  -5   1 -12   -2.82    2.52
   5  -1 -12   -3.49    3.45
  -5  -1 -12    0.80    1.69
   5  -1 -12   -0.66    2.00
  -5   1 -13  246.85   13.29
  -5  -1 -13  258.67   14.24
   5   1 -13  274.76   14.49
   5  -1 -13  290.67   15.75
   5   2   0    3.34    6.95
   5  -2   0    1.62    7.79
  -5   2   1  114.94   24.03
   5  -2  -1  105.90   23.33
   5   2  -1  117.72   28.50
   5   2   1  130.70   30.53
   5  -2   1  136.28   29.98
  -5   2  -1  115.20   24.44
   5   2   1  138.84   33.13
   5   2  -1  104.30   26.49
  -5   2   2   -1.63    4.40
   5   2  -2   15.20   10.78
   5   2  -2    2.74   10.82
   5   2   2   -2.17    8.22
   5   2   2    0.13    3.90
   5  -2  -2   -9.54    9.85
  -5   2  -2   -1.03    4.69
  -5   2  -3   99.91   23.11
   5   2  -3  124.22   28.74
   5  -2  -3  101.42   26.14
   5   2  -3   98.62   27.70
   5   2   3  101.66   27.39
   5   2  -4    9.32    7.88
  -5   2  -4    0.04    3.34
   5  -2  -4   -2.47   11.57
   5   2  -4   10.01    5.62
   5   2   4   14.55   12.64
  -5   2  -5   19.99    6.00
   5   2  -5   40.33   15.54
  -5   2  -5   32.14   16.11
   5  -2   5   24.16    6.48
   5   2   5   28.36    7.78
   5   2  -5   35.79   10.04
   5  -2  -5   27.59    9.39
   5  -2  -5   61.78   25.52
   5  -2  -5   19.68    5.28
   5   2  -5   31.48   10.20
   5   2   5   37.06    8.81
   5   2   5   26.20   18.32
   5   2  -5   25.23    6.50
   5  -2  -5   31.88   11.07
  -5   2  -6    1.01    1.81
  -5  -2  -6    4.55    4.22
   5   2   6    2.94    2.92
  -5   2  -6   -2.77    5.43
   5  -2   6    0.95    2.98
   5   2  -6    7.87    6.52
   5  -2  -6    0.82    3.25
   5  -2  -6    3.85   13.00
   5   2  -6   -6.48    6.06
   5   2   6    1.76    4.23
   5   2   6    7.08   10.35
   5  -2  -6    3.63    2.09
   5   2  -6    5.75    3.24
   5  -2  -6    2.69    6.62
   5   2  -7   11.19    3.88
  -5   2  -7   19.37    5.31
  -5  -2  -7   18.85    6.10
   5   2   7   17.73    6.19
   5  -2   7   19.76    5.96
   5   2  -7   18.75    5.94
   5  -2  -7   20.23    8.75
  -5   2  -7   40.02   18.10
   5  -2  -7   23.51   16.51
   5  -2  -7   24.84    6.92
   5   2  -7   20.10    8.11
   5   2   7   17.97    6.63
   5   2   7   -3.72    8.47
   5  -2  -7   15.40    7.75
   5   2  -7   27.22    6.84
   5   2  -8   -3.32    4.72
  -5   2  -8   -3.68    3.36
  -5  -2  -8    6.23    3.87
   5  -2   8    0.02    2.76
   5   2  -8    3.14    4.83
   5  -2  -8    1.74    3.55
   5   2  -8   -3.62    4.82
   5   2   8   -0.35    3.55
   5  -2  -8    5.85    7.10
   5   2  -8    0.72    3.30
   5   2  -9   16.43    3.61
  -5   2  -9   16.10    6.06
  -5  -2  -9   14.32    5.68
   5   2   9   12.91    4.87
   5  -2  -9   13.01    6.54
   5   2  -9    7.23    5.14
   5  -2   9   21.50    6.25
   5   2  -9   17.39    6.27
   5  -2  -9   13.16    7.27
   5   2  -9   21.38    5.14
   5   2 -10   -3.73    3.98
  -5   2 -10    5.62    3.82
  -5  -2 -10    3.32    2.29
   5   2  10   10.52    4.72
   5  -2 -10    3.32    2.07
   5   2 -10    9.78    5.97
   5   2 -10    3.77    3.47
   5  -2 -10    5.05    3.93
   5   2 -11   18.53    5.04
  -5   2 -11   12.26    4.26
  -5  -2 -11    9.26    4.48
   5   2  11   21.27    5.75
   5   2 -11   11.21    3.65
   5  -2 -11   17.09    6.27
  -5   2 -12    1.60    1.39
  -5  -2 -12    0.16    2.20
   5  -2 -12   -5.07    3.89
   5   2 -12    0.43    1.36
   5  -2 -12    3.52    3.16
  -5   2 -13   20.29    3.75
   5  -2 -13   18.76    3.91
  -5  -2 -13   13.30    3.14
   5  -2 -13   12.57    3.10
  -5   3   0   -4.54    8.23
   5   3   0    3.66    8.09
  -5   3   0    7.64    5.47
   5   3   0    1.74   10.38
  -5   3  -1  766.06   66.70
   5   3   1  719.90   67.06
  -5   3   1  745.09   71.44
   5   3   1  802.98   77.96
   5   3  -1  680.25   68.87
   5   3  -1  753.95   70.82
   5   3  -2   19.59   11.39
   5   3   2   11.40    8.96
   5   3  -2   10.58   12.16
  -5   3  -2   18.19   11.30
   5   3   2   11.62   14.63
  -5   3   2   25.26   18.55
  -5   3  -3  811.42   74.86
   5  -3   3  698.47   37.71
   5   3   3  747.97   77.83
   5   3   3  607.46   32.52
   5   3  -3  724.67   73.74
  -5   3   3  770.34   81.55
   5   3  -3  614.60   35.08
   5   3   3  690.72   67.65
   5   3  -3  630.32   69.64
   5  -3  -4    8.54    5.69
  -5   3  -4    4.57    1.48
   5   3   4    8.67    3.28
   5  -3   4    6.00    3.41
   5   3  -4   13.83    7.91
   5  -3  -4   16.05   15.14
   5   3  -4    4.54    1.70
   5   3   4    1.25    3.03
   5   3   4   14.57   17.30
  -5   3  -4    4.75    9.55
  -5   3  -5  712.26   36.58
   5   3   5  727.01   42.98
  -5   3  -5  603.09   68.21
   5  -3   5  654.27   36.37
   5   3  -5  769.13   47.82
   5  -3  -5  682.50   91.04
   5  -3  -5  501.90   28.33
   5   3  -5  635.11   36.39
   5   3   5  783.78   89.92
   5   3   5  712.89   39.24
   5  -3  -5  708.18   46.55
   5   3  -5  620.58   69.92
  -5   3  -6   13.48    4.52
   5   3  -6   34.18   16.78
  -5  -3  -6    7.54    4.70
  -5   3  -6    5.13   13.30
   5   3   6    4.97    4.66
   5   3  -6   17.22    8.77
   5  -3   6    9.74    5.29
   5  -3  -6   -3.80    7.44
   5  -3  -6    6.45    4.62
   5   3   6   10.87    5.49
   5   3   6    7.81   16.32
   5  -3  -6    4.60    3.72
  -5   3  -7  566.32   32.09
  -5  -3  -7  571.76   34.62
   5   3  -7  552.62   30.56
   5   3   7  622.32   36.69
   5  -3   7  621.27   35.10
   5   3  -7  587.80   39.13
   5  -3  -7  605.93   42.18
   5  -3  -7  582.12   32.44
   5   3  -7  634.83   38.66
   5  -3  -7  635.26   46.38
   5   3   7  671.17   39.34
   5   3  -7  610.55   32.03
   5   3  -8   12.58    5.48
  -5   3  -8   19.88    6.52
  -5  -3  -8   13.36    5.14
   5   3   8    7.66    4.08
   5  -3   8   14.42    6.37
   5   3  -8    5.96    4.90
   5  -3  -8   10.60    5.63
   5  -3  -8    7.41    3.59
   5   3  -8   14.94    5.42
   5  -3  -8   15.45    8.31
   5   3  -8    9.98    3.70
  -5   3  -9  500.96   28.33
  -5  -3  -9  482.54   29.82
   5   3  -9  473.91   27.37
   5   3   9  475.59   28.41
   5  -3   9  494.95   30.21
   5   3  -9  507.14   32.09
   5   3  -9  517.03   31.91
   5  -3  -9  601.25   43.25
   5   3  -9  449.50   24.59
  -5   3 -10    2.54    3.72
  -5  -3 -10   -2.02    3.95
   5   3  10    2.48    1.84
   5   3 -10   15.55    8.04
   5   3 -10    1.49    2.56
   5  -3 -10    8.03    7.04
  -5   3 -11  387.94   20.38
  -5  -3 -11  378.84   22.65
   5   3  11  403.94   22.86
   5   3 -11  387.14   21.98
   5  -3 -11  420.30   27.75
  -5   3 -12    4.08    2.14
  -5  -3 -12    7.10    3.03
   5   3 -12    4.48    1.69
   5  -3 -12    4.73    2.62
  -5   3 -13  212.24   10.22
  -5   4   0   -0.56    4.11
   5  -4   0   -1.13    4.46
   5   4   0    5.19    5.05
   5   4   0    3.72    3.11
   5   4   0    5.71    9.17
  -5   4   1   94.43   29.38
   5  -4   1  102.85   15.16
   5   4   1  103.74   25.01
   5  -4  -1  102.27   16.42
   5   4  -1  101.14   25.53
   5   4  -1  117.91   14.16
  -5   4  -1  118.13   28.71
   5   4   1  108.93   14.19
   5   4  -1   99.16   14.32
   5   4   1  102.13   28.06
   5   4  -1  112.23   29.94
   5   4  -2    7.02    9.17
  -5   4  -2    6.89    3.53
   5   4  -2    6.30    6.20
   5   4   2   22.07    8.86
   5  -4   2   14.75    5.70
   5   4   2    9.13    9.07
   5   4  -2    7.59    4.02
  -5   4  -2    3.08    6.41
   5   4   2   17.06    5.27
   5   4  -2   19.38    6.71
   5  -4  -2    4.41    5.56
   5   4   2   19.40   13.42
  -5   4   2   30.14   15.95
   5   4  -3   96.50   27.80
   5   4   3  166.12   25.99
   5  -4   3  129.34   16.92
   5   4  -3  131.04   31.73
   5   4   3  100.99   25.43
   5  -4  -3  139.37   19.77
   5   4   3  115.67   14.69
   5   4  -3  113.82   17.06
  -5   4  -3   98.92   27.10
   5   4   3  131.61   32.37
  -5   4   3   94.57   30.05
   5   4  -3  113.47   14.19
  -5   4  -3  121.35   14.54
  -5   4  -4   49.69    9.57
   5   4  -4   19.13   12.79
   5   4   4   59.61   13.47
   5  -4   4   63.28   11.63
   5   4   4   59.66   20.89
   5   4  -4   52.91    9.51
   5   4   4   46.37    9.47
   5   4  -4   57.43   12.84
   5   4   4   77.24   26.39
  -5   4   4   69.98   27.84
  -5   4  -4   44.03   18.46
   5  -4  -4   52.17   12.80
  -5   4  -5  131.43   16.13
  -5   4  -5   68.60   23.14
   5   4  -5   97.00   26.99
   5   4   5  128.45   18.40
   5   4  -5  140.48   19.23
   5   4   5  125.08   31.99
   5  -4  -5  108.61   13.78
   5   4  -5  123.21   15.21
   5  -4  -5  117.25   18.13
   5   4   5  141.76   16.91
   5   4   5  114.37   34.38
   5  -4   5  130.03   16.15
  -5   4  -6   26.55    7.08
  -5  -4  -6   23.15    7.20
   5  -4   6   27.15    8.14
   5   4  -6   24.55    7.45
   5   4   6   27.04    8.23
   5  -4  -6   18.99    6.85
   5   4  -6   22.23    6.06
   5   4   6   19.48    5.93
   5  -4  -6   15.59    7.45
  -5   4  -7  122.62   14.76
  -5  -4  -7  114.16   15.88
   5   4   7  132.92   17.88
   5  -4   7  110.78   14.42
   5   4  -7  111.02   15.16
   5  -4  -7  105.65   14.42
   5   4  -7  103.85   14.16
   5   4   7  112.60   15.81
   5   4  -7  107.42   13.06
   5  -4  -7   93.86   16.30
  -5   4  -8   -2.38    3.87
  -5  -4  -8    4.12    3.17
   5  -4   8    7.57    5.05
   5   4  -8    3.56    4.22
   5  -4  -8    5.45    3.09
   5   4  -8   -1.41    3.91
   5   4   8    4.08    4.69
   5  -4  -8   -0.27    5.59
   5   4   8    7.26    4.16
   5   4  -8    8.53    4.54
  -5   4  -9  105.65   12.56
  -5  -4  -9  100.75   13.54
   5   4   9   95.60   12.53
   5   4  -9  120.90   14.06
   5  -4  -9  111.09   13.13
   5   4  -9  107.16   13.50
   5  -4  -9   92.75   14.09
   5   4  -9  109.90   11.77
  -5   4 -10   -0.19    2.43
  -5  -4 -10    5.98    4.42
   5   4  10   -1.02    2.46
   5   4 -10    2.77    2.42
   5  -4 -10   -3.13    4.07
  -5  -4 -11   82.51    9.92
   5   4 -11   79.66    8.97
   5  -4 -11   82.20   10.36
  -5   4 -11   80.66    8.47
  -5   4 -12   14.22    3.18
  -5  -4 -12   12.28    3.15
   5   4 -12   11.54    2.83
  -5   4 -12    9.75    2.18
   5  -4 -12   15.52    3.68
  -5   5   0    1.38    2.50
  -5   5   0    2.02    9.73
   5  -5   0    1.44    4.26
   5   5   0   -0.53    3.48
  -5   5   0   -9.03    9.30
   5   5   0    1.94    3.13
   5   5   0    6.43    7.88
  -5   5  -1  329.69   52.78
   5   5   1  405.42   34.02
   5  -5  -1  432.35   34.83
   5   5   1  328.01   46.58
  -5   5   1  352.07   52.58
   5   5   1  378.26   53.24
   5  -5   1  434.57   33.09
   5   5  -1  384.33   55.69
   5   5   1  412.65   29.48
   5   5  -1  458.05   34.15
   5   5  -1  370.23   51.94
  -5   5  -1  375.33   24.15
   5  -5  -2    1.52    3.84
   5   5  -2  -21.08   13.70
  -5   5  -2   -2.05    2.08
   5  -5  -2   -5.45    5.18
   5   5   2   -0.04    5.41
   5   5   2   -2.08    4.02
   5  -5   2   -2.19    4.19
   5   5  -2    3.95    2.72
  -5   5  -2  -17.42   11.93
   5   5   2   -0.80    3.06
   5   5  -2    0.90    2.76
   5   5   2    2.57    5.14
   5   5  -2  -12.42    9.81
  -5   5   2   21.63   15.84
  -5   5  -3  268.86   46.94
   5  -5  -3  323.79   28.66
   5  -5   3  338.68   27.75
  -5   5   3  257.33   47.51
   5   5  -3  318.06   22.99
   5   5   3  279.05   48.37
   5  -5  -3  313.07   29.01
   5   5   3  273.50   23.04
   5   5  -3  306.41   52.04
   5   5  -3  299.92   27.34
  -5   5  -3  317.80   23.18
  -5   5  -4   -3.70    3.38
   5   5  -4   -8.25    9.02
   5  -5   4    8.34    5.30
   5   5   4   10.65    8.10
   5   5  -4    5.62    3.32
   5   5   4    7.81    3.99
   5   5  -4   -1.37    5.41
  -5   5  -4    7.81    8.57
   5   5   4   24.03   15.25
  -5   5   4    4.11    6.52
   5  -5  -4    2.78    3.56
   5   5   5  487.46   36.46
   5  -5   5  432.17   29.76
   5   5  -5  453.81   27.85
   5  -5  -5  427.78   33.69
   5   5   5  458.97   30.01
   5   5  -5  354.02   26.62
  -5   5  -5  459.58   28.11
  -5   5  -6    0.56    3.54
   5  -5   6    3.60    4.54
   5   5   6   -2.67    2.95
   5  -5  -6    1.35    3.03
   5   5  -6   -3.37    4.19
   5   5   6    2.28    4.90
   5  -5  -6   -1.16    4.53
  -5  -5  -7  471.86   31.29
   5   5   7  496.61   33.50
   5  -5   7  414.69   28.13
   5  -5  -7  489.85   30.38
   5   5  -7  421.45   26.38
   5  -5  -7  447.90   34.39
   5   5   7  467.38   29.42
  -5   5  -7  452.85   27.08
  -5   5  -8    1.68    3.14
  -5  -5  -8    6.88    4.62
  -5   5  -8    0.31    1.78
   5   5   8    2.70    3.56
   5  -5   8    2.77    2.60
   5  -5  -8   -2.98    3.73
   5   5  -8   -1.14    3.53
   5  -5  -8    0.63    2.93
   5   5  -8    3.53    2.75
  -5  -5  -9  345.81   23.41
  -5   5  -9  303.95   18.07
   5   5   9  340.49   22.19
   5  -5  -9  358.09   21.98
   5   5  -9  388.35   22.79
   5  -5  -9  351.74   24.29
   5   5  -9  304.25   17.83
  -5   5  -9  332.06   20.14
  -5   5 -10    3.68    2.19
  -5  -5 -10    1.15    1.80
   5   5  10   -1.89    2.16
   5   5 -10   -0.31    2.30
   5  -5 -10   -0.94    3.01
  -5  -5 -11  313.15   16.06
   5   5 -11  329.54   15.32
   5  -5 -11  319.60   16.71
  -5   5 -11  304.34   13.99
   5  -6   0    6.69    5.62
   5   6   0    2.50    5.02
   5   6   1  212.67   21.12
   5  -6   1  240.59   23.47
   5  -6  -1  254.59   24.72
   5   6   1  256.62   22.29
   5   6  -1  245.34   22.04
  -5   6  -1  271.24   20.56
  -5   6  -2   -3.46    2.38
   5  -6   2    0.03    4.20
   5   6   2    4.45    2.85
   5  -6  -2    6.71    5.05
   5   6  -2    2.62    2.02
   5   6   2    3.57    3.42
   5   6  -2   -1.69    2.13
   5   6   3  221.40   23.01
   5  -6  -3  253.29   24.53
   5  -6   3  232.57   22.77
   5   6  -3  236.98   19.38
   5  -6  -3  199.94   20.40
   5   6   3  251.39   22.47
   5   6  -3  229.16   21.28
  -5   6  -3  259.15   19.93
  -5   6  -4    4.98    3.20
   5  -6  -4   16.22    7.77
   5  -6   4    7.37    2.88
   5   6   4   16.14    6.43
   5   6  -4    7.14    3.68
   5   6   4    5.23    4.42
   5   6  -4   14.02    5.57
   5  -6  -4   17.48    7.12
   5   6   5  271.45   23.47
   5   6  -5  289.01   20.60
   5  -6  -5  261.37   24.32
   5   6   5  310.90   24.01
   5   6  -5  230.97   19.86
   5  -6   5  280.93   23.84
  -5   6  -5  286.22   20.86
  -5   6  -6   -0.69    2.38
   5   6   6    2.52    2.61
   5  -6   6   -4.71    5.00
  -5   6   6    5.04    3.92
   5  -6  -6   -1.38    4.17
   5   6  -6    0.17    2.16
   5   6   6    3.89    1.98
   5   6  -6    0.18    2.38
   5  -6  -6    7.54    6.31
  -5  -6  -7  190.24   16.71
   5   6   7  258.10   21.02
   5  -6   7  235.00   19.44
   5  -6  -7  249.74   20.45
   5   6  -7  243.83   18.02
   5  -6  -7  230.72   20.57
   5   6   7  229.81   18.12
  -5   6  -7  243.44   18.08
  -5   6  -8   -1.39    1.66
  -5  -6  -8   -0.71    2.61
  -5   6  -8   -1.44    1.44
   5   6   8   -0.87    1.97
   5  -6  -8    0.52    2.49
   5   6  -8   -0.80    2.15
   5  -6  -8    0.03    2.43
   5   6  -8    1.71    2.47
  -5  -6  -9  151.17   12.39
  -5   6  -9  181.41   12.44
   5   6   9  187.61   14.07
   5  -6  -9  189.59   14.36
   5   6  -9  197.82   13.80
   5  -6  -9  183.01   14.88
   5   6  -9  147.94   11.04
  -5   6  -9  177.98   12.76
  -5   6 -10    1.23    0.98
  -5  -6 -10   -1.37    1.90
   5   6  10    1.69    1.00
   5   6 -10    0.41    1.02
   5  -6 -10    3.81    2.16
   5  -7   0    2.06    3.34
   5   7   0    3.64    3.75
   5   7   1  459.45   28.16
   5  -7  -1  520.61   31.37
   5  -7   1  480.08   30.10
   5   7   1  513.42   28.35
   5   7  -1  494.60   28.02
   5  -7  -2   -3.74    4.12
   5  -7   2    0.29    3.14
   5   7   2    1.16    3.38
   5   7   2    2.67    3.18
   5   7  -2    3.97    3.54
   5   7   3  357.03   25.17
   5  -7  -3  423.99   28.57
   5  -7   3  374.67   26.28
   5   7   3  360.33   23.32
   5   7  -3  386.56   25.42
  -5   7  -3  409.07   22.77
  -5   7  -4   24.06    5.55
   5  -7  -4   26.86    6.68
   5   7   4   26.17    6.49
   5   7  -4   23.06    5.95
   5   7   4   28.15    6.36
   5   7  -4   17.98    5.87
   5  -7   4   22.92    6.46
   5   7   5  335.19   22.42
   5  -7  -5  343.57   23.15
   5  -7   5  328.67   23.05
  -5   7   5  380.36   24.58
   5   7  -5  366.79   21.17
   5   7   5  339.24   21.24
   5   7  -5  326.91   21.08
  -5   7  -5  369.60   21.42
  -5   7  -6   10.38    3.70
   5  -7   6   13.21    4.38
   5   7   6   13.24    4.35
  -5   7   6   12.27    4.09
   5  -7  -6   19.98    6.03
   5   7  -6   11.43    3.80
   5   7   6    9.45    3.16
   5   7  -6    8.75    3.52
   5  -7  -6    9.21    3.29
  -5   7  -7  235.89   15.54
   5   7   7  234.29   16.07
   5  -7   7  220.54   15.99
  -5   7   7  214.22   14.92
   5  -7  -7  268.17   19.42
   5   7  -7  228.36   15.03
   5  -7  -7  178.10   13.87
  -5   7  -7  235.09   15.05
  -5   7  -8    3.58    1.78
  -5   7  -8    4.47    2.35
   5   7   8    5.41    2.63
   5  -7  -8    8.52    3.04
   5   7  -8    2.16    1.53
   5  -7  -8    7.27    2.97
   5   7  -8    6.21    2.69
  -5   7  -9  137.80    8.99
   5   7   9  128.07    9.14
   5   7  -9  140.97    9.61
  -5   7  -9  138.10    8.81
   5  -8   0   -0.51    2.88
   5   8   0    1.58    2.02
   5  -8  -1  290.61   20.27
   5  -8   1  266.99   19.84
   5   8   1  309.64   19.70
   5   8  -1  291.56   18.99
   5  -8  -2    6.37    2.88
   5  -8   2    1.56    1.98
   5   8   2   -1.00    1.53
   5   8   2   -0.68    3.07
   5   8  -2   -0.55    2.50
   5   8   3  262.61   18.36
   5  -8  -3  271.10   19.46
   5  -8   3  236.76   17.99
  -5   8   3  289.15   19.70
   5   8   3  281.55   18.22
   5   8  -3  264.79   17.92
   5  -8   4   22.62    5.45
  -5   8   4   25.69    5.83
   5  -8  -4   28.70    6.21
   5   8   4   26.99    5.71
   5   8   4   32.62    6.08
   5   8  -4   29.24    5.76
   5   8   5  233.08   15.70
   5  -8  -5  213.44   15.24
   5  -8   5  222.80   15.93
  -5   8   5  261.88   17.24
   5  -8  -5  251.03   17.38
   5   8   5  229.88   14.69
   5   8  -5  233.69   15.06
  -5   8  -6   -0.75    1.22
   5  -8   6    0.83    1.79
   5   8   6    3.38    1.79
  -5   8   6   -1.14    2.22
   5  -8  -6    5.18    3.47
   5   8  -6    2.27    1.59
  -5   8  -7  211.24   11.67
   5   8   7  194.70   11.51
   5  -8  -7  200.87   12.52
   5   8  -7  187.04   10.54
  -5   8  -8   -0.53    0.87
   5   8   8    0.97    1.16
   5  -8  -8    0.12    1.09
   5  -9   0    0.92    1.56
  -5   9   0    0.46    2.37
   5   9   0   -2.06    2.09
   5  -9  -1  137.65   11.28
   5  -9   1  142.29   11.53
  -5   9   1  161.26   12.80
  -5   9  -1  136.74   11.30
   5   9   1  155.64   11.69
   5   9  -1  153.51   11.29
   5  -9  -2    2.35    1.77
   5  -9   2    5.68    2.68
  -5   9   2    4.24    2.83
  -5   9  -2    3.54    1.56
   5   9   2    5.54    2.63
   5   9  -2    7.67    2.72
  -5   9  -3  168.33   11.00
   5   9   3  130.16    9.57
   5  -9  -3  145.07   11.17
   5  -9   3  155.70   11.63
   5   9   3  169.80   11.49
   5   9  -3  146.49   10.51
  -5   9   3  168.85   11.86
  -5   9  -4    1.82    1.54
   5  -9  -4    0.25    0.84
   5  -9   4    1.88    1.49
  -5   9   4    0.68    1.22
   5  -9  -4    1.12    1.37
   5   9   4    2.68    1.49
   5   9  -4    1.07    1.68
   5   9   4    0.91    1.39
  -5   9  -5  136.07    8.68
   5   9   5  112.74    8.18
   5  -9   5   95.31    7.54
  -5   9   5  117.94    8.77
   5  -9  -5  121.81    8.88
   5   9  -5  108.47    7.83
  -5   9  -6    6.21    1.54
   5   9   6    7.23    1.79
   5   9  -6    5.50    1.56
   5 -10   0   -0.20    0.71
   5  10   0   -0.43    0.92
   5 -10  -1  257.90   11.01
   5 -10   1  251.58   11.12
  -5  10   1  241.74   10.63
   5  10  -2    0.59    0.65
   6   0   0  428.58   60.44
   6   0   1   10.63   12.67
   6   0  -1   -7.52   11.81
   6   0   2 2066.24   68.42
   6   0   2 2040.29  135.03
   6   0  -2 1869.18   72.17
   6   0  -2 2101.99  143.09
   6   0   3    2.96    3.61
   6   0  -3   -5.78   11.43
   6   0  -3   13.32    5.58
   6   0   3    1.17    4.38
   6   0  -3   -2.16    3.19
   6   0   4 1814.64   62.80
   6   0  -4 1728.60  130.22
   6   0  -4 1818.27   74.60
   6   0   4 1795.29   59.42
   6   0  -4 1866.55   58.64
   6   0   5    0.24    3.48
   6   0  -5   -1.38    6.88
   6   0  -5   -4.84    2.42
   6   0  -5    6.26    6.46
   6   0   6  486.76   31.97
   6   0  -6  544.32   44.08
   6   0  -6  438.11   38.59
   6   0  -6  467.84   28.60
  -6   0  -7   -3.86    2.02
   6   0   7   -5.70    3.53
   6   0  -7   -1.47    5.45
   6   0  -7   -0.58    2.28
   6   0  -7    3.57    7.18
  -6   0  -8 2307.54   67.34
   6   0   8 2477.55   70.22
   6   0  -8 2455.75   89.19
   6   0  -8 2466.90   90.35
  -6   0  -9   -0.23    2.98
   6   0  -9   -5.73    4.54
   6   0   9    0.81    2.95
   6   0  -9   -3.08    6.19
   6   0  -9   -2.35    3.97
  -6   0 -10  848.88   35.77
   6   0 -10  823.26   32.94
   6   0  10  961.99   39.49
   6   0 -10  926.69   43.07
   6   0 -10  785.74   37.23
   6   0 -11   -3.32    3.02
  -6   0 -11   -1.23    1.45
  -6   0 -12  616.04   22.53
   6   0 -12  578.43   20.96
   6   1   0   26.00   17.23
   6  -1   0    2.11    7.08
   6  -1  -1    7.86    4.39
   6   1  -1   10.73    8.76
   6   1   1   11.78   12.52
   6  -1   1    4.99    8.56
   6   1   2   -0.47    3.21
   6  -1  -2  -20.30   14.28
   6   1  -2    1.62    5.58
   6  -1   2    7.15    3.83
   6   1   2    2.51    6.92
   6  -1   2   -5.61   10.43
   6   1  -2    3.43    4.53
   6  -1  -2   -8.09    7.16
   6   1   2   -1.25    2.46
   6  -1  -2    1.65    2.32
   6   1  -2   -0.90    3.98
   6   1   3   -0.16    4.93
   6   1  -3    8.08   10.58
   6  -1   3   -4.48    5.20
   6  -1  -3    9.65   10.07
   6   1   3    2.53    8.18
   6   1  -3    0.86    2.95
   6  -1  -3    8.25    5.20
   6   1  -3   -0.04    2.57
   6   1   3   -1.54    3.57
   6  -1  -3    1.70    1.71
   6   1  -3   -1.11    3.20
   6   1  -4    7.77    5.72
   6   1   4    9.57    4.72
   6   1  -4    6.88    8.08
   6  -1   4    8.45    3.43
   6   1  -4    7.91    5.00
   6  -1  -4   12.21    8.08
   6   1  -4    1.45    3.09
   6   1   4   12.57    5.25
   6  -1  -4   17.88    6.47
   6   1  -4    6.13    3.14
   6   1   5    2.44    3.91
   6  -1   5    0.45    3.24
   6   1  -5    4.27    5.80
   6  -1  -5   -5.51    6.56
   6   1  -5   -1.27    5.22
   6   1   5    1.21    3.19
   6   1  -5    4.84    3.92
   6  -1  -5    9.57    7.09
  -6   1  -6   25.25    8.32
   6   1   6   38.78   10.12
   6  -1   6   43.83    9.98
   6   1  -6   44.34   12.70
   6  -1  -6   43.27   14.29
   6   1  -6   38.80   10.35
   6   1  -6   35.21    7.87
   6  -1  -6   35.72   14.01
  -6   1  -7   -3.04    3.74
  -6  -1  -7    5.43    4.83
   6   1   7    3.94    4.44
   6  -1   7    3.88    3.21
   6   1  -7   -3.24    7.15
   6  -1  -7    1.33    5.63
   6   1  -7    8.37    4.85
   6   1  -7    2.29    2.54
   6  -1  -7    6.94    6.49
   6   1  -8    7.95    2.46
  -6   1  -8    2.65    3.41
  -6  -1  -8    6.73    4.47
   6   1   8   13.34    5.63
   6  -1   8    7.83    3.23
   6   1  -8    9.43    4.46
   6  -1  -8   12.05    7.07
   6   1  -8    6.84    5.36
   6  -1  -8    6.69    5.38
   6   1  -8   11.76    5.45
   6   1  -9   -4.83    4.18
  -6   1  -9   -0.50    2.67
  -6  -1  -9   -0.20    2.80
   6  -1   9    1.55    2.98
   6   1   9   -2.84    4.41
   6   1  -9   -4.43    5.00
   6  -1  -9  -12.29    6.31
   6  -1  -9    7.00    5.96
   6   1 -10   -2.60    3.57
  -6   1 -10    6.73    4.46
  -6  -1 -10    2.46    3.50
   6  -1  10    7.33    3.95
   6   1  10    8.96    4.61
   6  -1 -10   18.12    7.19
   6   1 -10    5.04    4.18
   6  -1 -10    2.79    4.29
   6   1 -11    6.24    2.90
  -6   1 -11    0.47    2.03
   6  -1 -11   -2.66    2.43
  -6  -1 -11   -0.63    1.96
   6   1  11    6.70    2.25
   6  -1 -11    2.17    2.12
  -6   1 -12    3.93    2.01
  -6  -1 -12    4.51    2.22
   6  -1 -12    3.28    1.98
   6   2   0 1748.73  119.23
   6  -2   0 1696.52  111.82
   6   2   0 1524.88   59.36
   6   2   0 1499.01  102.71
   6   2   1    5.98    3.20
   6   2  -1    2.22   14.14
   6  -2   1    6.05    4.84
   6   2   1   -0.32    8.37
   6  -2   1   10.68    4.66
   6   2  -1    5.36    3.29
   6  -2  -1   -6.37    2.78
   6   2   1    7.56    4.88
   6   2  -1    5.62    4.50
   6   2   2 2468.62   81.99
   6   2  -2 2385.81  150.17
   6  -2   2 2366.18   73.76
   6   2   2 2216.45  133.09
   6  -2   2 2471.49  153.81
   6   2  -2 2058.32   70.99
   6  -2  -2 2267.97   82.39
   6   2  -2 2047.89   69.04
   6   2   2 2005.76  131.70
   6   2   2 2162.90   65.99
   6   2  -2 2501.12   75.03
   6   2   3   15.87    7.20
   6   2  -3   21.37   15.38
   6  -2   3   16.30    6.48
   6   2   3   14.39   11.19
   6   2  -3   20.46    7.24
   6  -2  -3   22.96    8.19
   6   2  -3   13.40    5.85
   6   2   3   24.14    7.52
   6   2   3   21.36   14.43
   6   2  -3   23.78    6.96
   6   2   4 2137.79   74.23
   6   2   4 2292.61  148.71
   6   2  -4 2203.30   78.19
   6  -2  -4 2251.13   82.65
   6   2  -4 2214.76   78.13
   6   2   4 2169.81   67.01
   6  -2  -4 2415.26   94.41
   6   2  -4 2255.94   65.95
   6  -2   4 2183.80   68.38
  -6   2  -5    7.16    4.76
   6   2   5    4.55    3.96
   6  -2   5    6.25    5.33
   6   2  -5    8.25    6.16
   6  -2  -5   19.28    9.05
   6   2  -5   10.45    5.12
   6   2   5   10.37    5.81
   6   2   5    0.30    4.34
   6   2  -5    7.74    4.63
   6  -2  -5    2.09    6.41
  -6   2  -6  962.89   45.61
   6   2   6  972.63   47.11
   6  -2   6  961.27   44.68
   6   2  -6 1076.04   59.19
   6  -2  -6 1180.41   64.14
   6   2  -6 1075.90   60.05
   6   2   6  824.31  107.92
   6   2   6 1056.28   49.26
   6  -2  -6 1048.61   64.00
   6   2  -6 1036.56   44.39
  -6   2  -7   -0.79    3.12
  -6  -2  -7    3.50    2.68
   6   2   7   10.73    5.79
   6  -2   7    7.75    2.96
   6   2  -7   -5.94    7.10
   6  -2  -7    4.72    6.19
   6   2  -7    6.51    6.62
   6   2  -7    3.17    2.14
   6  -2  -7   12.15    6.67
  -6   2  -8 1454.66   51.03
  -6  -2  -8 1382.41   51.24
   6   2  -8 1265.87   44.50
   6   2   8 1512.84   54.41
   6  -2   8 1530.70   54.35
   6   2  -8 1494.69   61.41
   6  -2  -8 1573.01   65.48
   6   2  -8 1501.67   61.69
   6  -2  -8 1685.36   80.32
   6   2  -8 1537.93   50.46
   6   2  -9    7.04    3.07
  -6   2  -9    1.87    2.33
  -6  -2  -9    9.89    4.66
   6   2   9    3.72    3.71
   6  -2   9    4.94    4.06
   6  -2  -9    3.10    3.39
   6   2  -9   -1.66    3.91
   6   2  -9    2.84    3.31
   6  -2  -9   -3.21    3.85
   6   2  -9    3.25    2.97
  -6   2 -10  650.57   29.10
  -6  -2 -10  656.24   31.18
   6   2 -10  588.05   26.24
   6  -2  10  658.33   31.48
   6   2  10  721.10   33.49
   6  -2 -10  713.32   33.76
   6   2 -10  740.84   35.33
   6   2 -10  631.53   31.40
   6  -2 -10  752.87   40.31
  -6   2 -11    6.08    2.80
  -6  -2 -11    7.90    2.68
   6  -2 -11    1.40    2.27
   6   2  11    7.08    2.81
   6   2 -11    3.56    1.92
  -6   2 -12  483.06   18.26
  -6  -2 -12  424.98   17.91
   6  -2 -12  438.37   18.24
   6  -2 -12  471.08   20.68
   6   3   0    7.74    3.96
   6  -3   0   16.11    7.32
   6   3   0    8.12   10.93
   6   3   0    8.79    5.05
   6   3   0   11.79    5.59
   6   3   0   30.85   13.69
   6   3  -1  -16.60   11.66
   6   3   1    6.24    6.33
   6  -3  -1    4.56    3.15
   6   3  -1    3.53    6.42
   6  -3   1    3.40    2.51
   6   3   1   -2.14    5.65
   6   3  -1   -1.51    3.97
   6  -3  -1   -0.98    4.02
   6   3   1   21.75    6.70
   6   3   1    3.18    3.49
   6   3  -1    0.89    2.97
   6   3   1    9.49   12.36
   6   3  -2   15.98   11.63
   6   3   2   20.96    8.24
   6   3  -2   39.24   17.08
   6  -3   2   10.21    5.26
   6   3   2   -0.18    6.22
   6   3  -2    4.45    3.43
   6  -3  -2   17.71    6.77
   6   3  -2   17.59    7.85
   6   3   2    9.55    4.34
   6   3  -2    6.45    2.43
   6   3   2  -19.01   12.94
   6   3  -3  -13.55   10.65
   6   3  -3    2.41    9.10
   6   3   3   -4.78    5.64
   6  -3   3    7.75    6.61
   6   3   3  -11.41    8.50
   6   3  -3    3.08    3.90
   6  -3  -3   -2.17    3.33
   6   3  -3   -1.61    3.21
   6   3   3    3.52    5.61
   6   3   3   -9.26   10.01
   6  -3  -4   12.72    8.06
  -6   3  -4   16.57    5.38
   6   3   4    8.27    4.83
   6  -3   4   17.77    5.95
   6   3   4   22.67   15.00
   6   3  -4   16.12    7.96
   6  -3  -4    2.63    3.30
   6   3  -4   17.21    6.11
   6   3   4    7.57    4.78
   6   3   4    8.60   10.11
   6   3  -4   12.84    6.11
  -6   3  -5    0.01    3.09
   6   3   5   -8.76    5.46
   6  -3   5    6.24    5.31
   6   3  -5    5.62    3.66
   6  -3  -5   -5.47    5.96
   6   3  -5   -5.10    5.16
   6   3   5    0.26    4.50
   6   3   5    0.22    3.88
   6   3  -5   -3.57    2.82
   6  -3  -5   -1.53    4.41
  -6   3  -6  107.11   14.63
   6  -3   6  101.02   14.60
   6   3   6  109.52   15.56
   6  -3  -6  131.43   20.34
   6   3  -6  112.64   18.10
   6  -3  -6  143.20   15.67
   6   3  -6   97.38   15.02
   6   3   6  105.26   15.84
   6   3  -6  106.19   14.16
   6  -3  -6   76.26   15.54
  -6   3  -7    0.69    2.65
   6   3   7   -1.89    3.11
   6  -3   7   -1.68    2.71
   6   3  -7  -10.74    8.45
   6  -3  -7  -10.90    6.57
   6  -3  -7   -2.33    3.83
   6   3  -7    0.79    3.90
   6   3   7    1.56    4.37
   6  -3  -7    1.22    5.96
   6   3  -7   -4.51    3.41
  -6   3  -8   53.80    9.70
  -6  -3  -8   47.48    9.10
   6   3   8   47.56    9.62
   6  -3   8   58.07   10.74
   6   3  -8   57.61   10.77
   6  -3  -8   53.67   10.20
   6   3  -8   51.55   10.47
   6  -3  -8   46.65   13.42
   6   3  -8   46.09    8.43
  -6   3  -9    3.82    3.52
  -6  -3  -9   -2.25    2.65
   6   3   9   -0.24    3.78
   6  -3   9    4.79    3.10
   6   3  -9    1.70    1.93
   6   3  -9    3.26    2.11
   6  -3  -9    3.18    5.13
   6   3  -9    1.35    1.42
  -6   3 -10   88.92   10.11
  -6  -3 -10   73.59    9.77
   6   3  10   94.29   10.69
   6   3 -10   97.70   11.61
   6   3 -10   97.40   11.55
   6  -3 -10  100.40   13.97
  -6   3 -11    0.94    1.48
  -6  -3 -11    1.52    1.78
   6   3  11    4.34    2.76
   6   3 -11    2.69    1.49
   6  -3 -11    7.73    3.81
   6  -3 -12   70.50    7.25
  -6   3 -12   76.23    6.48
   6   4   0 1960.70  126.07
   6  -4   0 2191.90   74.04
   6   4   0 1765.48  122.92
   6   4   0 1945.24   66.62
   6   4  -1   10.51    9.72
   6   4  -1   10.42    8.75
   6   4   1    5.68    4.14
   6  -4  -1   -3.80    5.94
   6  -4   1    6.06    5.00
   6   4   1    0.39    4.07
   6   4   1    2.68    3.39
   6   4  -1    2.55    3.81
   6   4   1  -10.25    9.60
   6   4   2  852.99   52.11
   6   4  -2  573.90   68.17
   6  -4  -2  695.20   45.04
   6  -4   2  696.99   40.61
   6   4   2  540.63   63.58
   6   4  -2  666.79   36.04
   6   4   2  514.32   66.18
   6   4   2  649.52   37.83
   6   4  -2  478.09   65.22
   6   4  -2  660.68   40.40
   6  -4  -3    1.67    4.06
  -6   4  -3    5.47    4.07
   6   4  -3   25.93   14.97
   6   4   3   -0.79    6.20
   6  -4   3   -1.36    3.27
   6   4   3   -2.61    3.08
   6   4  -3    3.69    4.23
   6   4   3   -3.31    2.74
   6   4  -3    3.89    4.10
   6   4   3   25.39   15.56
   6   4   4 1185.23   59.02
   6  -4   4 1070.78   48.17
   6   4  -4 1071.31   53.88
   6   4  -4 1030.94   44.74
   6   4   4 1091.12   48.59
   6  -4  -4 1164.72   57.77
  -6   4  -4 1001.38   41.99
  -6   4  -5   -1.18    4.00
   6   4   5   -2.27    5.80
   6  -4   5   -1.03    3.49
   6   4  -5    1.66    3.61
   6  -4  -5    9.07    5.44
   6   4  -5    1.57    2.68
   6   4   5    4.03    3.55
   6  -4  -5    0.48    4.34
   6   4   6 1280.61   53.30
   6  -4   6 1299.67   51.56
   6   4  -6 1331.34   55.77
   6  -4  -6 1335.99   49.98
   6   4  -6 1332.72   51.60
   6  -4  -6 1264.31   59.74
   6   4   6 1408.84   55.49
   6   4  -6 1344.25   48.84
  -6   4  -6 1329.78   50.02
  -6   4  -7    5.82    2.13
   6   4   7    6.00    4.66
   6  -4   7   10.47    5.35
   6   4  -7    1.30    3.35
   6  -4  -7   -0.07    2.30
   6   4  -7    1.00    4.03
   6   4   7    1.68    3.75
   6  -4  -7    2.76    4.95
   6   4  -7    2.01    2.38
   6   4   8  648.73   33.80
   6  -4   8  634.36   32.52
   6   4  -8  611.28   31.62
   6   4  -8  636.32   32.93
   6  -4  -8  600.37   37.47
   6   4  -8  631.56   29.32
  -6   4  -8  601.68   29.53
  -6   4  -9    4.73    1.83
  -6  -4  -9    5.70    2.32
   6   4   9   -2.12    2.89
   6  -4   9    5.43    2.65
   6   4  -9   11.68    5.01
   6   4  -9    2.77    1.87
   6  -4  -9    1.82    2.98
   6   4  -9    1.97    1.53
  -6  -4 -10  574.74   25.49
   6   4  10  623.43   25.53
   6  -4 -10  626.69   28.66
  -6   4 -10  608.45   23.81
  -6   4 -11    0.06    0.84
  -6  -4 -11   -1.98    1.45
   6   4  11    0.18    1.09
   6   4 -11    1.55    1.30
   6  -4 -11   -0.14    1.44
   6  -5   0  409.78   32.27
   6   5   0  399.42   31.27
   6   5   1   -1.46    4.64
   6  -5  -1    4.22    4.60
   6  -5   1    5.86    4.13
   6   5   1   -1.43    3.04
   6   5  -1   10.57    7.27
   6   5   2  254.22   26.18
   6  -5  -2  260.27   25.77
   6  -5   2  236.05   23.38
   6  -5  -2  252.78   25.10
   6   5   2  243.26   23.17
   6   5  -2  289.03   28.94
  -6   5  -2  209.26   17.72
  -6   5  -3   -1.71    2.89
   6  -5  -3    1.34    2.89
   6   5   3   -0.13    3.65
   6  -5   3   -4.41    5.45
   6   5  -3    2.84    2.93
   6   5   3    5.25    5.08
   6   5  -3    8.86    3.44
   6  -5  -3    2.45    4.49
   6   5   4  178.07   23.73
   6  -5   4  148.02   17.67
   6  -5  -4  143.85   16.72
   6   5  -4  144.26   15.95
   6  -5  -4  158.27   19.93
   6   5   4  162.64   18.59
   6   5  -4  146.71   18.82
  -6   5  -4  148.91   15.43
  -6   5  -5    2.59    3.28
   6   5   5    1.97    5.33
   6  -5   5   -0.50    4.20
   6  -5  -5   -0.35    2.83
   6   5  -5    1.92    3.04
   6   5   5    1.88    4.27
   6  -5  -5   -1.73    3.07
   6  -5   6   91.39   13.09
   6   5   6   87.09   13.96
   6  -5  -6   95.45   13.26
   6   5  -6   93.22   12.74
   6   5   6   99.94   13.75
   6   5  -6   97.80   12.27
   6  -5  -6   76.16   14.04
  -6   5  -6  105.51   12.99
  -6   5  -7    5.27    2.55
   6   5   7    7.84    4.17
   6  -5   7    5.39    3.66
   6  -5  -7   11.86    5.22
   6   5  -7    1.68    2.85
   6   5   7    5.31    2.63
   6  -5  -7    6.22    4.69
   6   5  -7    8.18    4.18
  -6   5  -8   29.62    6.15
  -6   5  -8   19.57    4.57
   6   5   8   22.93    5.76
   6  -5   8   22.13    5.87
   6  -5  -8   23.12    5.30
   6   5  -8   29.18    6.29
   6  -5  -8   30.72    7.62
   6   5  -8   17.14    4.25
  -6   5  -9   -0.65    2.01
   6   5   9    1.48    1.98
   6   5  -9    4.17    2.81
   6  -5  -9    1.76    2.61
   6   5  -9   -2.81    2.07
  -6   5 -10   17.97    3.57
   6   5  10   20.95    4.23
   6   5 -10   20.13    3.99
   6  -5 -10   14.59    3.35
   6  -6   0 1992.18   64.20
   6   6   0 2070.19   63.52
   6  -6  -1    4.33    3.73
   6  -6  -1    2.40    2.69
   6   6   1    6.15    4.74
   6  -6   1   -0.28    2.90
   6   6   1   10.61    5.62
   6   6  -1   -3.81    3.71
   6   6   2  546.12   33.23
   6  -6  -2  602.04   36.12
   6  -6   2  592.67   35.77
   6  -6  -2  508.89   31.17
   6   6   2  619.80   35.61
   6   6  -2  554.84   32.77
  -6   6  -2  583.93   28.09
  -6   6  -3   31.74    6.68
   6  -6  -3   24.14    7.43
   6  -6   3   23.76    6.63
   6   6   3   20.50    6.73
   6   6   3   27.82    8.69
   6   6  -3   21.64    6.64
   6  -6  -3   20.82    6.10
   6   6   4  855.28   42.33
   6  -6   4  823.45   39.79
   6  -6  -4  941.92   43.42
   6  -6  -4  778.10   39.53
   6   6   4  934.91   41.93
   6   6  -4  656.43   33.58
  -6   6  -4  819.49   32.48
  -6   6  -5   28.83    5.81
   6   6   5   25.08    6.93
   6  -6   5   27.68    6.95
   6  -6  -5   25.86    6.94
   6   6  -5   32.15    6.50
   6   6   5   32.65    7.92
   6   6  -5   18.68    4.99
   6  -6  -5   33.13    8.19
   6   6   6 1015.36   38.51
   6  -6   6 1050.28   40.71
  -6   6   6  985.10   35.93
   6  -6  -6 1125.09   42.65
   6   6  -6 1161.79   39.24
   6  -6  -6 1076.80   45.14
   6   6   6 1103.12   40.22
   6   6  -6  974.08   34.42
  -6   6  -6 1081.98   36.30
  -6   6  -7   16.34    4.48
   6   6   7   11.50    3.84
   6  -6   7   27.75    6.22
   6  -6  -7   14.48    4.32
   6   6  -7   21.64    5.24
   6   6   7   12.04    3.95
   6  -6  -7   14.32    4.99
   6   6  -7   12.04    3.45
  -6   6  -8  330.10   16.49
   6   6   8  335.18   18.43
   6  -6   8  310.68   17.96
   6  -6  -8  338.45   18.46
   6   6  -8  394.90   19.89
   6  -6  -8  341.78   20.12
   6   6  -8  330.25   16.57
  -6   6  -8  354.60   17.58
  -6   6  -9    9.89    2.60
  -6   6  -9    6.89    1.91
   6   6   9    8.98    2.65
   6   6  -9    6.66    2.36
   6  -6  -9    4.47    2.05
   6   6  -9    5.46    1.80
   6  -7   0  121.09   13.99
   6   7   0  136.36   14.53
   6  -7  -1    6.71    4.61
   6  -7   1    4.07    4.03
   6   7   1    1.38    3.95
   6   7  -1    4.02    3.69
   6   7   2  161.91   15.63
   6  -7  -2  162.64   16.56
   6  -7   2  149.52   15.74
   6   7   2  169.57   15.88
   6   7  -2  155.31   15.73
   6  -7  -3   -0.71    2.27
   6  -7   3    3.62    3.31
   6   7   3    7.49    4.53
   6  -7  -3   11.85    5.21
   6   7   3    0.61    3.46
   6   7  -3    2.30    3.38
   6   7   4  151.81   14.80
   6  -7  -4  137.14   14.29
   6  -7   4  123.64   13.33
   6  -7  -4  160.23   16.45
   6   7   4  152.60   14.18
   6   7  -4  127.45   12.81
  -6   7  -4  132.20   11.53
  -6   7  -5    2.28    2.46
   6  -7   5    6.60    3.63
   6   7   5    8.83    4.20
  -6   7   5    4.16    2.95
   6  -7  -5    8.25    3.73
   6   7   5    4.52    3.00
   6   7  -5    5.81    3.49
   6  -7  -5    2.62    2.24
   6   7   6   85.45    9.20
   6  -7   6   98.97   10.56
  -6   7   6  100.57    9.97
   6  -7  -6  105.58   11.39
   6  -7  -6   61.54    7.78
   6   7   6   83.08    8.96
   6   7  -6  104.33    9.58
  -6   7  -6   96.72    9.13
  -6   7  -7    1.11    1.51
  -6   7  -7    3.65    2.28
   6   7   7    1.04    1.62
   6  -7   7    0.43    1.82
   6  -7  -7   -0.67    1.29
   6  -7  -7   -0.25    1.13
   6   7  -7    3.32    1.99
  -6   7  -8   99.91    7.26
   6   7   8  102.67    7.94
   6   7  -8   93.63    6.95
  -6   7  -8  111.07    7.68
   6  -8   0  471.82   23.44
   6   8   0  491.50   22.82
   6  -8  -1   -0.17    2.66
   6  -8   1    0.18    1.62
   6   8   1    1.45    2.76
   6   8  -1   -2.62    2.47
   6  -8  -2  331.42   19.53
   6  -8   2  297.87   18.36
   6   8   2  336.94   19.04
   6   8  -2  332.98   18.94
   6  -8  -3    2.84    2.43
   6  -8   3    2.35    1.50
   6   8   3    2.02    1.70
  -6   8   3   -1.09    2.39
   6  -8  -3    3.18    1.83
   6   8   3    2.79    2.46
   6   8  -3   -2.18    2.34
   6   8   4  404.89   18.77
   6  -8  -4  390.57   19.16
   6  -8   4  421.03   20.26
   6  -8  -4  364.43   18.02
  -6   8   4  445.18   20.45
   6   8   4  450.08   20.05
   6   8  -4  401.56   18.47
  -6   8  -5   12.41    3.13
   6  -8   5    7.02    2.72
   6   8   5    9.14    2.85
  -6   8   5    8.05    2.58
   6  -8  -5    4.46    1.91
   6   8   5    7.63    2.60
   6   8  -5    7.60    2.24
   6   8  -5   10.70    3.00
  -6   8  -6  357.69   14.10
   6   8   6  350.18   14.36
   6  -8   6  274.68   13.24
  -6   8   6  266.95   12.61
   6   8  -6  344.23   13.59
   6  -9   0   89.30    7.87
  -6   9   0   88.14    7.76
   6   9   0   97.52    8.09
   6  -9  -1    3.61    2.16
   6  -9   1   -0.41    1.50
  -6   9   1   -1.07    1.06
  -6   9  -1   -0.07    1.10
   6   9   1   -1.72    1.61
   6   9  -1    0.58    1.30
   6  -9  -2  152.04    9.84
   6  -9   2  145.74    9.74
  -6   9   2  152.69    9.97
   6   9   2  173.13   10.47
   6   9  -2  158.87    9.94
  -6   9  -3    0.67    1.08
   6  -9   3   -0.20    0.81
  -6   9   3    1.68    1.42
   6   9   3    0.60    0.98
   6   9  -3    2.61    1.48
   6   9  -3    3.03    1.56
  -6   9  -4  146.43    7.90
  -6   9   4  142.07    8.40
   6   9  -4  163.87    8.59
   7   0   0  -26.19   15.16
   7   0   0   -4.06    3.35
   7   0  -1    0.25    4.65
   7   0   1   -0.59    3.60
   7   0   1   -7.64    7.21
   7   0  -1   -0.55    4.79
   7   0   1   -0.32    2.38
   7   0  -1   -3.72    3.36
   7   0  -2   -8.65   10.39
   7   0   2    4.85    3.44
   7   0   2   25.53   17.13
   7   0  -2   11.47    5.05
   7   0   2    7.74    6.35
   7   0  -2   11.93    5.65
   7   0  -3    8.38   10.12
   7   0   3    4.22    4.99
   7   0   3    9.64   11.94
   7   0  -3   -5.85    5.88
   7   0  -3   -1.22    4.22
   7   0  -4    5.69    4.83
   7   0   4   12.05    5.94
   7   0  -4    1.75    4.39
   7   0  -4    7.98    3.71
   7   0   5   -3.39    4.64
   7   0  -5   -6.76    7.76
   7   0  -5    0.90    3.00
   7   0  -5   -0.24    4.32
   7   0   6    4.27    5.36
   7   0  -6   -8.50    6.78
   7   0  -6    4.55    7.25
   7   0   7   -0.34    3.86
   7   0  -7    3.51    4.25
   7   0  -7    0.91    5.72
   7   0   8    0.77    2.92
   7   0  -8   -8.86    5.89
  -7   0  -9   -3.57    2.93
   7   0   9    0.69    2.47
   7   0  -9   -3.47    2.90
   7   0  -9   -3.85    4.42
  -7   0 -10   21.99    5.07
   7   0  10   29.06    6.17
   7   0 -10   23.70    6.02
  -7   0 -11    2.18    1.84
   7  -1   0   -0.33    2.97
   7   1   0   -7.52   14.55
   7   1   0    4.06    5.17
   7   1   0    0.26    2.01
   7   1   0    1.37    1.99
   7  -1   1  989.44   50.20
   7  -1  -1  826.66   97.02
   7   1  -1  961.28  102.94
   7   1   1  824.64   91.55
   7  -1   1  827.96   94.07
   7   1  -1  950.73   53.76
   7  -1  -1  908.08   53.63
   7   1   1  951.02   49.81
   7   1   1  924.39   46.93
   7   1  -1  931.13   44.04
   7   1   2   30.55   10.33
   7  -1  -2   62.73   25.72
   7   1  -2   31.01   19.26
   7  -1   2   27.88    9.67
   7   1   2   40.49   22.69
   7  -1   2   39.54   21.66
   7   1  -2   30.40   10.07
   7  -1  -2   22.32    7.80
   7   1   2   28.40    9.00
   7   1  -2   26.28    8.43
   7   1   3 1369.97   64.59
   7   1  -3  880.22   99.41
   7  -1   3 1328.37   61.98
   7   1   3 1043.14  110.59
   7  -1   3 1022.70  118.40
   7   1  -3 1255.78   62.97
   7  -1  -3 1217.25   63.75
   7   1   3 1132.16   51.17
   7   1  -3 1298.82   56.70
   7   1  -4   52.21   13.57
   7  -1  -4   63.20   16.26
   7   1   4   55.79   12.22
   7  -1   4   51.66   11.49
   7   1  -4   61.54   14.82
   7  -1  -4   80.24   16.46
   7   1   4   56.18   11.31
   7   1  -4   66.45   12.70
   7   1   5 1026.39   50.11
   7  -1   5 1013.84   48.85
   7   1  -5 1043.03   58.82
   7  -1  -5 1038.08   60.13
   7  -1  -5  952.31   60.59
   7   1  -5  948.36   43.46
   7   1   6   13.17    7.03
   7  -1   6    2.69    4.84
   7   1  -6    2.50    6.22
   7  -1  -6    0.16    4.63
   7   1  -6   -0.06    4.69
   7   1  -6   -2.48    3.56
   7  -1  -6    5.69    7.38
   7  -1   7 1139.17   49.03
   7   1   7 1170.98   51.10
   7   1  -7 1195.78   60.43
   7  -1  -7 1179.31   60.53
   7   1  -7 1103.77   55.69
   7  -1  -7 1086.12   61.46
   7   1  -7 1099.39   44.58
  -7   1  -8    4.58    3.51
   7  -1   8   -4.02    2.61
   7   1   8    3.91    3.96
   7   1  -8   -5.55    5.07
   7  -1  -8   -3.05    5.39
   7  -1  -8    0.22    5.20
  -7   1  -9  762.71   31.89
   7  -1   9  839.61   36.02
   7   1   9  891.44   38.02
   7  -1  -9  910.09   41.64
   7   1  -9  876.79   41.14
   7  -1  -9  896.21   44.65
  -7   1 -10   30.76    6.01
  -7  -1 -10   31.05    5.87
   7  -1  10   31.07    6.42
   7   1  10   37.25    6.62
   7  -1 -10   39.73    7.89
   7   1 -10   28.69    6.39
   7  -1 -10   29.19    6.75
  -7   1 -11  436.63   18.10
   7   1  11  389.44   17.97
   7  -2   0    0.57    2.93
   7   2   0    0.57    7.23
   7   2   0   -3.11    4.42
   7  -2   0   -2.14    3.74
   7   2   0    0.04    3.52
   7   2   0   -5.38    3.92
   7   2   1   46.18   11.10
   7   2  -1   24.19   16.60
   7  -2   1   42.63   10.60
   7   2   1   65.63   26.57
   7   2  -1   43.87   10.99
   7  -2  -1   44.35   11.22
   7   2   1   38.47    9.87
   7   2   1   44.68   10.14
   7   2  -1   35.79    9.17
   7   2  -1   53.47   11.02
   7   2   2   15.33    7.80
   7   2  -2   15.88    6.71
   7  -2   2    9.62    6.06
   7   2   2    2.48    8.14
   7   2  -2   11.78    7.53
   7  -2  -2    9.34    3.87
   7   2   2   15.01    7.07
   7   2  -2   12.32    5.51
   7   2   3   18.66    3.50
   7  -2   3   27.19    9.54
   7   2  -3   29.22   10.06
   7  -2  -3   34.52   11.09
   7   2   3   24.18    8.36
   7   2  -3   25.54    7.74
   7  -2  -4    7.79    6.32
   7   2   4   12.45    6.83
   7  -2   4   12.23    5.00
   7   2  -4   12.47    6.07
   7  -2  -4   18.71    6.08
   7   2   4   10.14    4.69
   7   2  -4   21.09    7.57
   7   2   5   47.36   10.81
   7  -2   5   42.27    9.99
   7   2  -5   62.78   14.28
   7  -2  -5   48.87   11.56
   7   2  -5   43.80   12.01
   7   2   5   33.90    8.10
   7   2  -5   39.73    8.70
   7  -2  -5   51.41   14.57
   7   2   6   39.47    9.48
   7  -2   6   31.39    7.64
   7   2  -6   30.74    8.97
   7  -2  -6   36.24   10.99
   7   2  -6   31.97    8.83
   7   2  -6   27.70    7.58
   7  -2  -6   34.61   11.49
  -7   2  -7   38.58    8.66
   7   2   7   34.30    9.54
   7  -2   7   31.41    7.59
   7   2  -7   27.80    8.20
   7  -2  -7   30.66    8.37
   7   2  -7   30.54    9.73
   7   2  -7   28.94    6.84
   7  -2  -7   33.66   10.57
  -7   2  -8   30.22    7.04
   7   2   8   26.05    7.61
   7  -2   8   28.61    7.56
   7   2   8   25.44    7.76
   7   2  -8   36.94    9.30
   7  -2  -8   29.62    8.06
   7   2  -8   23.56    7.89
   7  -2  -8   37.10   12.82
   7   2  -8   13.45    4.49
  -7   2  -9   10.71    3.51
   7  -2   9    6.99    3.71
   7   2   9   12.54    5.17
   7  -2  -9   18.47    5.78
   7   2  -9    9.76    4.09
   7   2  -9    8.14    4.27
   7  -2  -9   14.48    6.57
  -7   2 -10    8.50    2.90
   7  -2  10    3.87    1.60
   7   2  10    6.72    2.57
   7  -2 -10   12.22    4.58
   7   2 -10    7.23    3.63
   7  -2 -10    7.72    3.55
  -7   2 -11    6.65    2.02
   7  -2 -11    7.59    2.76
   7   3   0   -2.33    3.85
   7  -3   0   -0.05    5.00
   7   3   0   10.63    6.29
   7  -3   0   -3.47    4.32
   7   3   0    4.58    3.27
   7   3   0    0.78    2.11
   7   3   1 1331.86   60.99
   7  -3  -1 1309.21   61.57
   7  -3   1 1298.74   58.69
   7   3  -1 1186.58   52.84
   7  -3  -1 1187.43   55.75
   7   3   1 1158.92   50.48
   7   3   1 1292.26   57.86
   7   3  -1 1182.91   55.96
   7   3  -1 1390.61   57.81
   7   3   2  102.88   18.18
   7  -3   2   92.58   15.90
   7   3  -2   86.62   14.97
   7  -3  -2   81.55   14.73
   7   3   2   64.90   12.33
   7   3   2   93.73   15.16
   7   3  -2   78.09   14.09
   7   3  -2  122.41   18.31
   7  -3   3 1133.34   54.73
   7   3  -3 1013.07   50.81
   7  -3  -3 1025.50   52.54
   7   3   3 1103.36   51.81
   7   3  -3 1161.92   52.61
   7  -3  -4  123.94   20.02
   7  -3   4  107.15   16.17
   7   3   4  108.21   18.37
   7   3  -4  128.67   17.94
   7  -3  -4  105.19   16.62
   7   3   4   93.06   14.36
   7   3  -4  113.66   15.37
   7   3   5  901.27   46.82
   7  -3   5  928.98   45.23
   7   3  -5  982.00   51.48
   7  -3  -5 1007.88   52.88
   7   3  -5  921.75   47.70
   7   3   5  957.23   46.77
   7  -3  -5  921.50   53.31
   7   3  -5  989.53   44.51
  -7   3  -6   11.20    4.55
   7   3   6    7.50    4.98
   7  -3   6   20.52    7.04
   7   3  -6   17.46    7.07
   7  -3  -6   19.54    7.54
   7   3  -6   16.89    7.17
   7   3   6   14.63    6.48
   7   3  -6   17.95    6.16
   7  -3  -6   18.46    8.73
   7   3   7  629.64   35.02
   7  -3   7  667.68   35.13
   7   3  -7  670.54   37.12
   7  -3  -7  663.70   38.66
   7   3  -7  582.29   35.12
   7  -3  -7  697.27   46.23
   7   3  -7  676.29   32.66
  -7   3  -7  612.44   31.32
  -7   3  -8    6.61    3.14
   7   3   8   19.47    5.84
   7  -3   8   13.49    5.32
   7  -3  -8   11.64    4.80
   7   3  -8    7.89    4.17
   7   3  -8    7.72    4.01
   7  -3  -8   17.86    7.53
   7   3  -8   12.34    3.85
   7  -3   9  462.94   24.08
   7   3   9  521.29   26.84
   7   3  -9  491.36   25.80
   7   3  -9  468.26   25.33
   7  -3  -9  540.39   32.29
  -7   3  -9  455.85   22.28
   7   3  10   49.14    6.97
   7  -3 -10   59.60    8.82
  -7   3 -10   48.28    6.23
   7  -4   0   -2.77    3.90
   7   4   0   -1.08    2.16
   7   4   1   66.62   14.43
   7  -4  -1   72.66   15.84
   7  -4   1   70.24   13.07
   7  -4   1   57.40   11.61
   7   4   1   65.90   13.08
   7   4  -1   45.57   11.36
   7   4  -1   61.87   12.36
   7   4   2   55.62   13.60
   7  -4  -2   48.27   11.16
   7  -4   2   49.78   11.00
   7   4   2   55.92   12.45
   7   4  -2   51.02   11.45
   7   4  -2   65.96   12.56
   7  -4  -3   44.43   11.74
   7   4   3   51.85   13.10
   7  -4   3   62.92   12.81
   7   4  -3   42.69    9.59
   7   4   3   49.43   10.87
   7   4  -3   42.18   10.61
   7   4  -3   51.27    9.88
   7   4   4   43.64   11.56
   7  -4   4   44.18    9.35
   7   4  -4   43.47   10.14
   7   4   4   37.85   10.28
   7   4  -4   47.26   10.05
   7  -4  -4   42.47   11.12
  -7   4  -5   45.44    8.25
   7   4   5   64.54   12.99
   7  -4   5   66.24   11.70
   7   4  -5   56.18   10.96
   7   4  -5   53.32   10.13
   7   4   5   54.44   11.86
   7   4  -5   75.12   12.27
   7  -4  -5   49.70   12.30
   7   4   6   90.79   13.52
   7  -4   6   87.15   12.84
   7   4  -6   85.56   12.30
   7   4  -6   95.51   13.71
   7   4   6   99.98   14.31
   7   4  -6   95.65   12.82
   7  -4  -6   82.42   14.76
  -7   4  -6   89.98   11.65
  -7   4  -7   53.28    8.24
   7   4   7   53.04    9.35
   7  -4   7   47.27    8.94
   7   4  -7   51.82    9.02
   7   4  -7   67.78   11.04
   7  -4  -7   43.93    9.66
   7   4  -7   54.39    9.20
  -7   4  -8   43.03    6.89
   7   4   8   50.80    8.72
   7  -4   8   39.82    7.34
   7   4  -8   48.46    8.25
   7   4  -8   40.49    7.82
   7  -4  -8   42.55    9.67
   7   4  -8   47.37    6.88
   7   4   9   36.04    6.15
   7  -4   9   30.99    5.74
   7   4   9   48.35    7.51
   7   4  -9   67.36    8.26
   7  -4  -9   52.86    8.18
   7   4  -9   32.66    4.95
  -7   4  -9   42.79    6.10
  -7   4 -10    1.70    0.88
   7   4  10    3.33    1.87
   7  -4 -10    1.57    1.25
   7  -5   0   -5.94    6.45
   7   5   0   -2.41    7.31
   7   5   0    1.75    3.68
   7  -5  -1  979.45   48.75
   7  -5   1  973.66   48.54
   7   5   1  992.93   49.66
   7   5  -1 1026.90   52.03
   7   5  -1 1159.72   57.45
   7  -5  -2   -3.51    5.28
   7   5   2    2.86    4.91
   7  -5  -2   10.13    5.77
   7  -5   2    2.09    5.05
   7   5   2    1.17    4.11
   7   5  -2   11.92    8.88
   7   5  -2    6.31    4.91
   7   5   3  679.27   39.96
   7  -5   3  704.99   39.81
   7  -5  -3  736.85   42.60
   7   5   3  755.87   41.48
   7   5  -3  693.25   41.64
   7   5  -3  802.34   42.03
   7   5   4   10.01    6.47
   7  -5   4   13.68    6.05
   7   5   4   12.01    6.14
   7   5  -4    4.75    3.61
   7  -5  -4    0.40    3.14
   7   5   5  649.46   36.34
   7  -5   5  696.27   35.30
   7  -5  -5  745.54   40.76
   7   5   5  768.20   37.88
   7   5  -5  773.13   35.86
  -7   5  -5  663.69   28.46
  -7   5  -6    0.29    2.18
   7   5   6   -2.61    3.90
   7  -5   6   -0.96    3.33
   7   5   6    0.86    2.58
   7  -5  -6   -3.10    5.51
   7   5  -6    0.16    1.94
   7   5   7  442.55   24.92
   7  -5   7  443.88   24.84
   7  -5  -7  456.17   28.43
   7   5  -7  402.13   20.54
  -7   5  -7  422.72   20.70
  -7   5  -8    1.21    1.35
   7   5   8    0.65    1.47
   7  -5   8    3.01    1.68
   7  -5  -8    7.39    3.88
   7   5  -8    2.20    1.97
   7   5   9  333.18   15.95
   7   5   9  340.29   16.80
   7  -5  -9  339.47   17.77
  -7   5  -9  300.28   13.37
   7  -6   0    2.14    3.36
   7  -6   0   -0.35    3.20
   7   6   0   -3.30    3.69
   7   6   0   -0.36    3.55
   7  -6  -1  189.25   18.74
   7  -6   1  191.39   18.88
   7  -6  -1  164.78   16.65
   7   6   1  196.40   19.53
   7   6  -1  191.59   19.10
   7  -6   1  139.26   14.65
   7   6   2    8.50    4.18
   7  -6  -2    2.64    2.19
   7  -6   2   -2.01    3.70
   7   6   2    0.17    2.84
   7   6  -2    1.53    3.52
   7   6  -2    4.12    3.56
   7  -6  -2    0.42    1.77
   7   6   3  163.12   16.28
   7  -6   3  158.50   16.79
   7  -6  -3  169.65   17.41
   7   6   3  182.36   17.89
   7   6  -3  144.74   15.04
   7   6  -3  177.88   16.62
  -7   6  -4   18.73    4.08
   7   6   4   28.70    6.94
   7  -6   4   27.00    6.58
   7   6   4   36.93    7.82
   7   6  -4   20.85    5.70
   7  -6  -4   18.93    6.19
   7   6  -4   25.81    6.03
   7   6   5  135.24   13.61
   7  -6   5  130.84   13.66
  -7   6   5  116.46   11.58
   7  -6  -5  115.75   14.18
   7   6   5  134.25   13.80
   7   6  -5  129.99   12.90
  -7   6  -5  119.30   10.48
  -7   6  -6   13.22    3.37
   7   6   6    7.08    2.93
   7  -6   6   12.37    4.01
   7   6   6   10.45    3.66
   7  -6  -6    7.89    3.39
   7   6  -6   10.46    3.52
  -7   6  -7   73.26    7.09
   7   6   7   72.00    7.83
   7  -6   7   83.26    8.76
   7  -6  -7   89.27    9.84
   7   6  -7   86.26    8.24
  -7   6  -7   74.34    7.23
  -7   6  -8    4.38    1.39
   7   6   8    6.81    2.20
   7  -6  -8    7.25    2.59
   7   6  -8    5.02    1.74
   7  -7   0    1.42    1.49
   7   7   0    1.81    1.73
   7   7   0    2.70    1.75
   7  -7  -1  347.87   21.67
   7  -7   1  314.32   20.25
   7   7   1  332.90   20.49
   7   7  -1  323.50   20.45
   7   7  -1  341.53   19.78
   7  -7  -2   15.54    4.81
   7  -7   2   20.73    5.69
   7   7   2   12.80    4.56
   7   7  -2   16.16    4.71
   7   7  -2   13.72    3.90
   7   7   3  359.78   19.80
   7  -7  -3  343.45   20.17
   7  -7   3  320.03   19.53
   7   7   3  359.53   20.30
   7   7  -3  320.65   18.73
   7   7  -3  405.12   20.99
   7   7   4   42.67    6.82
   7  -7   4   35.56    6.26
  -7   7   4   38.75    6.16
   7   7   4   39.46    6.29
   7   7  -4   37.74    5.95
   7   7  -4   54.91    7.56
   7   7   5  384.82   18.74
   7  -7   5  359.18   18.49
  -7   7   5  327.34   16.61
   7   7   5  387.24   18.06
   7   7  -5  407.23   18.46
  -7   7  -6    0.70    0.90
   7   7   6    0.25    1.61
   7  -7   6    3.94    2.31
   7   7  -6    1.41    1.45
   7   7   7  299.85   12.21
   7  -8   0   -1.69    1.76
   7   8   0    0.88    1.27
   7  -8  -1   83.47    8.31
   7  -8   1   83.21    8.33
   7   8   1   86.58    8.29
   7   8  -1   87.17    8.75
   7   8  -1   84.15    7.47
   7  -8  -2    2.95    2.13
   7  -8   2    4.80    2.07
  -7   8   2    1.35    1.54
   7   8   2    2.54    2.41
   7   8  -2    0.82    1.21
   7   8  -2    3.88    2.16
   7  -8   3   99.95    8.59
  -7   8   3   99.89    8.37
   7   8   3  109.10    8.78
   7   8  -3  104.30    8.50
   7   8  -3  128.24    9.19
   7  -8   4    0.11    1.03
  -7   8   4   -0.14    0.87
   7   8   4   -1.10    1.30
   7   8  -4   -0.17    0.86
   8   0   0  685.21   46.29
   8   0   1   -5.18    6.34
   8   0  -1  -10.65    8.70
   8   0   1   -0.92    4.59
   8   0   2  683.10   44.81
   8   0  -2  652.48   46.14
   8   0   3   -6.51    7.46
   8   0  -3   -7.07    5.11
   8   0   4  924.88   50.50
   8   0  -4  926.80   54.90
   8   0  -4  850.69   53.80
   8   0   5   -1.03    4.26
   8   0  -5   -2.60    5.78
   8   0  -5    1.71    4.05
   8   0   6  575.06   35.76
   8   0  -6  534.42   39.23
   8   0   7   -3.13    3.40
   8   0  -7   -6.79    6.91
   8   0  -7    3.31    3.30
   8   0   8  714.95   33.58
   8   0  -8  713.25   36.59
   8   0   9    3.46    2.86
   8   0  -9   -0.27    2.35
   8   0  10  309.09   15.99
   8   0 -10  439.71   20.50
   8  -1   0    7.50    5.44
   8   1   0  -10.05    7.86
   8  -1   0    4.75    7.25
   8   1   0    3.52    6.21
   8   1   0    1.91    4.11
   8  -1   1    3.09    4.57
   8   1   1    0.47    2.79
   8   1  -1   -4.26    5.94
   8  -1  -1    3.25    5.64
   8   1   1   -4.62    6.10
   8  -1   1   -7.82    6.28
   8   1   1    5.88    5.72
   8   1  -1   -0.06    4.20
   8  -1   2   11.22    8.28
   8   1   2    2.90    4.41
   8   1  -2    1.87    3.57
   8  -1  -2    4.28    4.58
   8   1   2    7.97    6.16
   8   1  -2    3.91    4.12
   8   1  -3    1.02    3.83
   8  -1   3   -7.78    6.05
   8   1   3   -0.29    5.60
   8   1  -3    2.72    6.79
   8  -1  -3    3.43    6.77
   8   1  -3    4.77    3.02
   8  -1  -4    2.36    4.54
   8  -1   4   -1.06    3.10
   8   1   4    0.30    3.87
   8   1  -4    4.75    6.63
   8  -1  -4   -0.42    5.37
   8   1  -4    7.60    6.40
   8  -1   5   -2.85    5.23
   8   1   5    4.30    3.48
   8   1  -5   -1.89    4.37
   8  -1  -5    4.29    4.95
   8   1  -5    3.61    5.05
   8  -1  -5    5.14    4.98
   8  -1   6    9.23    4.89
   8   1   6    1.82    3.77
   8   1  -6    8.48    7.44
   8  -1  -6   -2.41    4.66
   8  -1  -6    1.95    3.55
   8  -1   7    1.90    3.86
   8   1   7    1.76    2.95
   8   1  -7    1.01    3.58
   8  -1  -7    1.97    4.01
   8  -1  -7    0.83    3.58
   8  -1   8    6.92    4.39
   8   1   8    4.43    4.15
   8   1  -8    2.47    3.56
   8  -1  -8    9.00    5.12
   8  -1  -8    0.32    3.15
   8  -1   9    4.11    2.87
   8   1   9   -2.91    2.53
   8  -1  -9   -0.42    2.04
   8   1  -9    0.46    2.77
   8  -1  -9    2.73    2.30
   8  -1  10    4.51    2.10
   8   1  10    3.18    1.72
   8  -1 -10   18.53    4.42
   8   1 -10   14.06    4.20
   8  -2   0 1130.78   55.63
   8   2   0 1139.15   53.95
   8   2   0 1060.53   53.53
   8   2   0 1033.60   45.95
   8  -2   1    6.23    6.79
   8   2  -1    4.98    6.64
   8  -2  -1   -4.80    5.04
   8   2   1   -2.37    2.93
   8  -2   1   -4.42    7.21
   8   2   1    5.67    5.93
   8   2  -1    6.93    3.16
   8  -2   2  891.24   48.94
   8   2   2  970.60   53.24
   8   2  -2  870.70   48.50
   8  -2  -2  919.36   53.13
   8   2   2  842.82   47.29
   8   2   2  929.55   49.34
   8   2  -2  871.28   46.09
   8  -2  -3   33.64   11.24
   8  -2   3   36.86   10.28
   8   2   3   27.18   11.08
   8   2  -3   41.48   10.98
   8  -2  -3   31.10    8.64
   8   2   3   36.40   11.64
   8   2  -3   22.53    8.82
   8  -2   4  991.19   49.63
   8   2   4  994.11   53.01
   8   2  -4 1106.09   55.46
   8  -2  -4 1035.58   54.01
   8   2   4 1076.50   50.18
   8  -2  -4 1161.53   64.35
   8   2  -4 1043.46   48.31
   8  -2   5   52.78   10.76
   8   2   5   47.85   11.55
   8   2  -5   46.14   11.54
   8  -2  -5   48.17   11.68
   8   2  -5   54.79   11.43
   8  -2  -5   48.67   13.73
   8  -2   6  595.77   34.95
   8   2   6  551.57   34.02
   8   2  -6  666.98   40.84
   8  -2  -6  659.38   40.80
   8  -2  -6  642.93   44.49
   8   2  -6  559.11   30.66
   8  -2   7    3.86    4.20
   8   2   7    3.85    5.60
   8   2  -7   -1.86    5.52
   8  -2  -7    3.32    2.41
   8  -2  -7   -7.62    6.94
   8  -2   8  582.18   28.19
   8   2   8  595.78   29.49
   8   2  -8  646.75   31.87
   8  -2  -8  595.98   29.82
   8  -2  -8  594.88   34.92
   8  -2   9    5.70    2.21
   8   2   9    2.26    2.32
   8  -2  -9    6.16    2.57
   8   2  -9   14.18    4.73
   8  -2  -9    8.08    3.53
   8  -3   0  269.00   26.56
   8   3   0  244.73   23.96
   8  -3   0  239.75   24.83
   8   3   0  239.54   25.91
   8   3   0  228.32   21.24
   8  -3   1    1.60    4.30
   8   3  -1    1.76    2.66
   8  -3  -1    3.85    5.71
   8   3   1   -2.88    4.18
   8  -3   1   -2.43    4.97
   8   3   1   -2.66    3.25
   8   3  -1    2.10    4.04
   8   3  -1    3.14    3.09
   8  -3   2  177.81   21.23
   8   3   2  190.06   22.88
   8   3  -2  166.35   19.70
   8  -3  -2  174.94   21.11
   8   3   2  165.41   19.41
   8  -3   2  168.94   21.42
   8   3   2  174.90   20.97
   8   3  -2  195.49   21.99
   8  -3  -3    0.87    4.72
   8   3   3   10.30    8.50
   8  -3   3    1.50    3.50
   8   3  -3   -2.77    3.56
   8  -3  -3   -9.21    6.75
   8   3   3   -0.44    3.49
   8   3   3    3.15    3.08
   8   3  -3    3.62    3.78
   8   3   4  134.87   19.93
   8  -3   4  108.22   15.64
   8   3  -4  122.57   17.26
   8  -3  -4  116.46   16.98
   8   3   4  106.40   15.45
   8   3   4  110.14   16.00
   8   3  -4  113.42   15.46
   8  -3  -4  100.21   17.84
   8   3   5   13.73    6.73
   8  -3   5    1.24    3.55
   8   3  -5    0.39    2.53
   8  -3  -5    1.31    3.14
   8   3   5    0.63    2.42
   8   3   5    4.94    4.17
   8   3  -5    0.03    2.96
   8  -3  -5   -1.02    4.96
   8   3   6   49.46    9.05
   8  -3   6   53.67    9.76
   8   3   6   67.81   12.02
   8   3  -6   53.96    9.98
   8  -3  -6   55.66   10.81
   8   3   6   49.27    9.14
   8   3  -6   59.74   10.02
   8  -3  -6   57.40   12.33
   8  -3   7    3.51    2.67
   8   3   7    3.07    2.68
   8   3  -7    2.75    1.86
   8  -3  -7   -1.44    2.56
   8   3  -7    0.62    2.42
   8  -3   8   18.81    5.03
   8   3   8   20.24    5.80
   8   3  -8   15.35    4.42
   8  -3  -8   14.28    5.40
   8  -3   9    1.53    1.61
   8   3   9    4.38    2.70
   8   3  -9    6.02    2.53
   8  -3  -9   -0.22    2.02
   8  -4   0  591.77   34.89
   8   4   0  641.04   40.39
   8   4   0  622.86   34.07
   8  -4  -1    0.34    5.14
   8  -4   1    3.50    3.18
   8  -4   1    4.29    3.76
   8   4   1    7.72    5.48
   8   4  -1    2.92    3.56
   8   4  -1    1.86    2.77
   8   4   2  445.80   32.90
   8  -4   2  463.03   32.84
   8   4  -2  392.67   27.37
   8  -4   2  364.08   26.85
   8   4   2  454.62   32.84
   8   4  -2  433.53   32.95
   8  -4  -2  500.61   37.05
   8   4  -2  570.95   38.36
   8   4   3   -1.60    3.47
   8  -4   3    0.08    3.09
   8   4  -3   -1.36    2.43
   8  -4   3    1.32    2.88
   8   4  -3   -1.73    3.79
   8  -4  -3   -1.78    4.26
   8   4   4  714.31   46.26
   8  -4   4  516.96   31.43
   8   4  -4  501.45   30.16
   8   4   4  607.50   35.19
   8  -4  -4  574.21   37.49
   8   4  -4  625.19   35.03
   8   4   5   -1.18    3.08
   8  -4   5   -3.16    3.80
   8   4  -5   -1.71    1.93
   8   4   5    3.37    3.37
   8   4  -5   -2.00    3.25
   8  -4  -5   -3.75    6.21
   8   4   6  356.64   23.82
   8  -4   6  370.47   23.58
   8   4  -6  312.75   19.47
   8  -4  -6  355.85   26.67
   8   4  -6  382.86   22.73
   8   4   7    4.97    2.54
   8   4  -7   11.02    3.14
   8  -4  -7    2.71    2.91
   8   4  -7   11.30    3.47
   8  -4   8  387.50   19.21
   8   4   8  391.97   20.05
   8  -4  -8  391.69   20.75
   8  -4  -9    0.64    1.05
   8  -5   0   56.14   10.93
   8  -5   0   68.30   11.58
   8   5   0   68.51   13.21
   8   5   0   68.84   10.61
   8  -5  -1   -0.92    2.57
   8  -5  -1    0.58    2.79
   8  -5   1   -1.24    3.19
   8   5   1   -1.35    5.31
   8   5  -1   -3.61    3.65
   8   5  -1   -7.17    6.35
   8   5   2   39.13    8.04
   8  -5   2   29.62    7.24
   8   5   2   37.14    9.94
   8   5  -2   36.50    8.58
   8   5  -2   55.32   10.29
   8  -5  -2   44.24    9.90
   8   5   3   -1.50    4.69
   8  -5   3   -0.11    4.46
   8   5   3    6.65    6.08
   8   5  -3    0.01    2.93
   8  -5  -3   -1.26    3.80
   8   5   4   73.00   11.35
   8  -5   4   54.92    9.60
   8   5   4   85.50   12.38
   8   5  -4   71.26   10.47
   8  -5  -4   69.21   11.74
   8   5   5    0.94    2.74
   8  -5   5    1.94    2.37
   8   5   5    2.10    2.51
   8   5  -5    1.22    2.06
   8  -5  -5   -1.77    2.73
   8   5   6  116.76   11.06
   8  -5   6  125.51   12.17
   8  -5  -6  136.50   14.59
   8   5  -6  135.65   11.43
   8  -5   7    2.60    1.89
   8   5   7    1.46    1.34
   8  -5  -7   -0.88    1.56
   8   5  -7    2.81    1.43
   8   5   8   87.67    7.29
   8  -5  -8   92.12    8.42
   8  -6   0  492.61   26.09
   8  -6   0  409.83   22.61
   8   6   0  467.97   26.14
   8  -6  -1   -0.06    2.27
   8  -6   1   -0.78    2.26
   8   6   1    3.93    3.05
   8   6  -1    4.53    3.46
   8   6  -1    0.94    1.31
   8  -6  -1   -3.79    2.64
   8  -6   1    2.94    2.53
   8  -6   2  347.23   21.73
   8  -6  -2  296.23   19.57
   8   6   2  355.97   21.87
   8   6  -2  303.27   19.34
   8   6  -2  343.10   19.91
   8   6   3    3.16    2.39
   8  -6   3    1.10    1.97
   8   6   3    4.30    4.92
   8   6  -3    3.23    2.23
   8   6  -3    5.27    2.33
   8  -6  -3   -3.80    3.30
   8   6   4  412.26   20.65
   8  -6   4  413.40   21.28
   8  -6  -4  382.04   21.69
   8   6   4  449.65   21.99
   8   6  -4  456.53   21.64
   8   6   5    1.49    1.20
   8  -6   5    7.58    2.53
   8   6   5   10.32    3.44
   8  -6  -5    5.31    2.45
   8   6  -5    9.14    3.18
   8  -6   6  274.65   14.41
   8   6   6  227.76   12.19
   8  -6  -6  234.83   13.80
   8   6  -6  290.85   13.63
   8  -7   0  187.73   12.97
   8   7   0  219.66   14.22
   8  -7  -1   -1.04    1.45
   8  -7   1    3.59    2.37
   8   7   1    1.81    1.63
   8   7  -1   -3.92    2.55
   8   7  -1    0.23    1.09
   8  -7   2  150.18   11.41
   8   7   2  149.62   11.02
   8   7  -2  137.38   10.35
   8   7  -2  155.36   10.32
   8  -7   3    0.60    1.62
  -8   7   3    0.84    1.16
   8   7   3   -0.01    1.04
   8   7  -3    0.02    0.94
   8  -7   4  152.09   10.18
   8   7   4  151.94    9.61
   8   7  -4  175.91   10.39
   9   0   0   -1.45    4.80
   9   0  -1    1.62    5.36
   9   0   1   -0.16    4.85
   9   0   2   12.20    5.89
   9   0  -2    0.24    6.89
   9   0   2   10.35    5.63
   9   0  -3   -3.53    4.15
   9   0   3   -5.26    3.88
   9   0  -3   -0.67    3.76
   9   0   3   -9.04    4.08
   9   0   4   23.97    8.20
   9   0  -4   41.20   10.63
   9   0   4   48.82   13.81
   9   0  -4   18.15    7.56
   9   0   5    2.19    2.50
   9   0  -5    1.45    3.84
   9   0  -5    1.14    2.46
   9   0   6   -1.61    3.10
   9   0  -6   -2.96    3.52
   9   0  -6    1.47    2.29
   9   0   7    7.97    4.04
   9   0  -7   -1.28    2.82
   9   0   8    0.85    1.74
   9   0  -8    2.19    1.62
   9   1   0   -4.21    5.39
   9  -1   0    1.67    4.87
   9  -1   1 1459.12   59.83
   9   1  -1 1630.43   65.62
   9  -1  -1 1568.13   66.41
   9   1   1 1680.36   66.82
   9  -1   1 1688.31   71.47
   9   1  -2    3.75    4.15
   9  -1   2    9.32    5.97
   9   1   2    8.07    5.79
   9   1  -2    3.71    4.27
   9  -1  -2   13.80    9.02
   9   1   2    9.12    5.51
   9  -1   2   16.56    8.03
   9  -1   3 1321.88   58.29
   9   1   3 1365.47   59.28
   9   1  -3 1331.34   57.77
   9  -1  -3 1338.18   58.65
   9   1   3 1563.03   66.37
   9  -1   3 1560.63   71.78
   9  -1  -3 1168.00   57.82
   9  -1   4   85.62   14.13
   9   1   4   88.17   14.98
   9   1  -4   82.95   12.73
   9  -1  -4   91.11   14.60
   9   1   4  101.62   16.66
   9  -1  -4   60.44   13.17
   9  -1   5 1000.99   43.98
   9   1   5  877.96   41.38
   9   1  -5 1154.61   50.94
   9  -1  -5 1170.25   51.37
   9   1   5 1303.87   56.98
   9  -1  -5  961.66   46.99
   9  -1   6    5.74    3.34
   9   1   6    1.39    2.66
   9   1  -6   11.92    5.98
   9  -1  -6    2.54    3.48
   9  -1  -6    2.17    2.22
   9  -1   7  786.42   31.90
   9   1   7  727.73   30.29
   9   1  -7  776.91   32.72
   9  -1  -7  748.75   31.71
   9  -1  -7  659.65   31.18
   9  -1   8   -2.28    2.01
   9   1   8    1.18    1.61
   9  -1  -8   -1.98    1.83
   9   1  -8   -0.06    1.27
   9   1   8    3.77    2.37
   9   2   0   -0.96    2.77
   9  -2   0    1.34    5.89
   9  -2   1    7.40    5.57
   9   2  -1   14.24    7.25
   9  -2  -1    0.85    5.78
   9   2   1    4.75    5.63
   9  -2   1   10.12    6.15
   9  -2  -2    2.12    4.71
   9  -2   2    5.40    3.86
   9   2   2   -0.22    2.85
   9   2  -2    2.02    2.72
   9  -2  -2   -1.20    6.17
   9   2   2    8.93    5.77
   9  -2   2    7.75    7.23
   9  -2   3    7.69    5.68
   9   2   3    0.82    4.06
   9   2  -3   13.95    5.97
   9  -2  -3    2.75    4.44
   9   2   3   -0.94    3.16
   9  -2   3   -1.67    5.28
   9  -2  -3   -3.24    3.96
   9  -2   4    6.43    3.81
   9   2   4    8.99    5.45
   9   2  -4   12.84    5.90
   9  -2  -4   13.47    6.15
   9   2   4   14.94    5.52
   9  -2   4   11.39    6.00
   9  -2  -4    3.98    4.16
   9  -2   5   25.11    7.75
   9   2   5   17.74    6.10
   9   2  -5    8.13    3.84
   9  -2  -5   15.87    5.51
   9   2   5   20.92    6.86
   9  -2  -5   13.08    5.30
   9  -2   6    1.34    2.95
   9   2   6    3.37    2.24
   9   2  -6   -1.77    3.47
   9  -2  -6   -2.38    4.25
   9   2   6    0.47    2.30
   9  -2  -6   -5.83    5.42
   9  -2   7   14.38    4.28
   9   2   7    8.04    3.93
   9   2  -7    9.02    3.86
   9  -2  -7    9.45    3.67
   9   2   7   10.88    3.82
   9  -2  -7    9.70    3.70
   9  -2   8    2.13    1.20
   9   2   8   -0.44    1.85
   9   2  -8    3.46    1.87
   9  -3   0   -8.50    6.42
   9   3   0    1.59    4.35
   9  -3   0   -3.12    4.93
   9   3   0    3.46    5.21
   9  -3   1  801.39   41.63
   9   3  -1  780.09   38.18
   9  -3  -1  816.81   40.85
   9   3   1  812.83   39.29
   9  -3   1  783.92   40.01
   9   3   1  764.50   39.90
   9   3  -1  760.48   35.56
   9  -3  -2   82.09   14.68
   9  -3   2   61.37   11.50
   9   3  -2   55.20   10.15
   9  -3  -2   60.41   11.15
   9   3   2   60.44   10.86
   9  -3   2   72.55   12.44
   9   3   2   65.99   11.48
   9   3  -2   72.80   12.08
   9  -3   3  791.82   40.43
   9   3   3  877.32   45.43
   9   3  -3  815.29   38.59
   9  -3  -3  839.74   39.99
   9   3   3  814.34   37.74
   9  -3   3  733.41   37.90
   9  -3  -3  866.64   43.99
   9   3  -3  905.91   42.03
   9  -3   4   53.96   10.57
   9   3   4   56.35   11.39
   9   3  -4   48.21    9.16
   9  -3  -4   58.55   11.01
   9   3   4   46.52    8.31
   9  -3   4   37.69    8.23
   9   3  -4   47.30    8.93
   9  -3  -4   45.16   10.03
   9  -3   5  774.54   34.14
   9   3   5  767.98   35.87
   9   3  -5  790.48   33.82
   9  -3  -5  852.77   37.51
   9  -3   5  699.46   33.40
   9  -3  -5  837.17   39.68
   9  -3   6   22.89    5.54
   9   3   6   26.89    5.95
   9   3  -6   22.13    4.97
   9  -3   6   15.83    4.39
   9  -3  -6   26.37    6.83
   9  -3   7  704.39   26.08
   9   3   7  650.84   25.09
   9  -3  -7  734.85   30.29
   9  -4   0    2.03    3.45
   9  -4   0    4.49    2.85
   9   4   0   -1.19    3.73
   9  -4  -1   32.62    8.22
   9  -4   1   33.05    7.82
   9  -4   1   29.21    6.21
   9   4   1   37.72    8.54
   9   4  -1   20.25    5.64
   9   4  -1   25.94    6.32
   9  -4   2   -0.64    3.28
   9  -4   2    2.73    1.75
   9   4   2    5.18    5.06
   9   4  -2    1.17    2.77
   9  -4  -2   -0.09    2.76
   9  -4   3   12.23    4.90
   9   4   3   13.36    4.81
   9  -4   3   14.85    4.33
   9   4   3   13.06    4.97
   9   4  -3   17.06    5.15
   9  -4  -3   11.07    5.09
   9  -4   4   19.37    5.14
   9   4   4   22.08    5.96
   9  -4   4   17.48    4.43
   9   4  -4   20.10    4.82
   9  -4  -4   13.38    4.60
   9  -4   5   25.96    6.08
   9   4   5   24.91    5.31
   9  -4   5   17.54    4.27
   9   4  -5   24.82    5.01
   9  -4  -5   21.22    5.59
   9  -4   6    9.00    3.00
   9   4   6    7.29    2.81
   9  -4  -6   13.10    4.62
   9  -5   0    1.01    2.65
   9   5   0   -2.68    3.01
   9  -5   0   -2.87    2.07
   9  -5   1  596.75   27.00
   9   5   1  572.00   27.54
   9  -5  -1  613.83   28.87
   9  -5   1  594.53   27.52
   9  -5   2    0.11    2.23
   9  -5   2   -0.69    2.43
   9   5   2   -1.26    1.64
   9   5  -2    1.64    1.28
   9  -5  -2   -1.06    3.24
   9  -5   3  612.00   27.00
   9   5   3  609.51   26.11
   9  -5  -3  612.32   27.88
   9  -5   3  515.64   23.32
   9   5  -3  591.18   23.39
   9  -5   4    1.64    1.62
   9   5  -4    2.84    1.95
   9  -5  -4   -0.64    2.81
   9  -5   5  542.09   21.22
   9  -5  -5  551.96   23.74
   9   5  -5  569.47   20.11
   9   6   0    1.38    0.95
   9  -6   1   48.51    6.09
   9   6   1   51.40    6.40
   9  -6   2    6.80    2.31
   9   6   2    1.38    1.80
   9  -6   3   58.40    6.36
  10   0   0  946.83   45.49
  10   0  -1    4.99    5.18
  10   0  -1   -1.55    3.33
  10   0   1   -3.95    5.37
  10   0  -2  136.71   16.24
  10   0   2  146.53   18.28
  10   0  -2  111.77   14.71
  10   0   3    1.78    2.74
  10   0  -3   -5.17    4.33
  10   0   3    0.19    3.58
  10   0  -3   -5.59    4.06
  10   0   4  226.08   19.14
  10   0  -4  249.44   19.78
  10   0   4  276.01   22.51
  10   0   5    2.75    2.02
  10   0  -5   -1.74    2.13
  10   0   5   -4.01    3.35
  10   0   6  239.17   14.31
  10   0  -6  272.16   15.55
  10   1   0    3.86    2.75
  10   1   0   14.04    6.75
  10  -1   0   14.40    6.15
  10  -1  -1   12.00    5.63
  10   1  -1    0.80    3.31
  10  -1  -1    3.62    4.49
  10   1   1   -4.33    5.19
  10  -1   1    4.00    4.03
  10  -1   2   -0.06    3.72
  10   1  -2    8.07    4.39
  10  -1  -2    3.48    3.75
  10   1   2   -0.45    3.30
  10  -1   2    8.40    5.24
  10  -1  -2   11.85    6.78
  10  -1   3    1.85    2.19
  10   1   3   -3.97    3.17
  10   1  -3    3.64    2.17
  10  -1  -3   -1.51    2.61
  10   1   3   -2.51    3.72
  10  -1   3    5.74    4.31
  10  -1  -3    5.15    2.52
  10  -1   4    2.58    2.30
  10   1   4    0.21    2.38
  10   1  -4   -1.91    1.83
  10  -1  -4   -1.96    3.43
  10   1   4    8.16    3.81
  10  -1   4    0.22    2.68
  10  -1  -4   -0.35    1.95
  10  -1   5    1.94    2.05
  10   1   5    1.56    1.85
  10   1  -5   -1.43    2.58
  10  -1  -5    3.21    2.27
  10   1   5   -0.15    2.07
  10  -1   5    1.46    2.45
  10  -1  -5    3.16    2.27
  10   1  -6   -1.18    1.37
  10  -1  -6   -2.94    1.66
  10   2   0  436.69   27.11
  10  -2   0  463.25   29.06
  10  -2   0  469.78   31.74
  10  -2  -1   12.43    4.17
  10   2  -1   10.54    4.07
  10  -2  -1    7.74    4.09
  10   2   1    6.28    4.06
  10  -2   1    4.58    3.38
  10  -2   2   96.48   12.07
  10   2  -2  141.57   14.75
  10  -2  -2  146.35   15.42
  10   2   2  155.83   15.93
  10  -2   2  137.21   15.42
  10  -2  -2  150.25   17.76
  10  -2   3    7.27    4.08
  10   2  -3    5.21    3.69
  10  -2  -3    3.35    3.63
  10   2   3    4.30    3.15
  10  -2   3    4.33    3.42
  10  -2  -3    3.93    3.91
  10  -2   4  202.67   16.41
  10   2   4  160.50   13.91
  10   2  -4  217.09   16.41
  10  -2  -4  242.60   17.89
  10   2   4  218.10   16.16
  10  -2   4  233.14   17.82
  10  -2  -4  215.21   18.21
  10  -2   5    9.79    3.04
  10   2  -5    5.76    2.30
  10  -2  -5    2.69    1.98
  10  -2   5    5.44    2.56
  10  -2  -5    5.69    3.44
  10  -3   0   20.52    5.96
  10   3   0   12.53    3.91
  10  -3   0   10.57    2.87
  10  -3   1    4.10    3.55
  10   3  -1   -2.06    1.53
  10  -3  -1    0.85    1.35
  10   3   1    0.57    1.36
  10  -3   1   -1.18    2.14
  10  -3   2   36.71    6.37
  10   3  -2   52.79    7.68
  10  -3   2   56.03    8.27
  10  -3  -2   50.46    7.81
  10  -3  -2   65.24    9.87
  10  -3   3   -0.03    1.68
  10   3  -3   -4.98    2.42
  10  -3  -3    1.26    1.38
  10  -3   3   -2.11    2.53
  10  -3  -3   -0.64    2.93
  10  -3   4   53.83    7.38
  10  -3   4   40.44    6.03
  10  -3  -4   48.01    7.89
  10  -4   0  103.47   10.96
  10  -4  -1   -1.07    1.95
  10  -4   1   -1.45    1.78
  10  -4  -2  195.50   14.53
  10  -4   2  179.63   13.61
  10  -4  -3   -1.91    2.25
  11   0   0   -0.92    1.25
   0   0   0    0.00    0.00


TITL 1 in Pbca
REM Pbca (#61 in standard setting)
CELL 1.54184   8.884030   9.187630  12.336920  89.9833  89.9624  89.9741
ZERR    8.00   0.000590   0.000670   0.000800   0.0056   0.0053   0.0057
LATT  1
SYMM -x+1/2,-y, z+1/2
SYMM -x, y+1/2,-z+1/2
SYMM  x+1/2,-y+1/2,-z
SFAC C H B O Gd
UNIT 8.00 32.00 8.00 56.00 8.00
TREF
HKLF 4
END
_computing_structure_solution     'SHELXT 2018/2 (Sheldrick, 2018)'
;
_shelx_hkl_checksum              49813
_olex2_submission_special_instructions 'No special instructions were received'
loop_
_space_group_symop_operation_xyz
'x, y, z'
'-x, -y, z+1/2'
'x, -y+1/2, -z'
'-x, y+1/2, -z+1/2'
'-x, -y, -z'
'x, y, -z-1/2'
'-x, y-1/2, z'
'x, -y-1/2, z-1/2'
loop_
_atom_site_label
_atom_site_type_symbol
_atom_site_fract_x
_atom_site_fract_y
_atom_site_fract_z
_atom_site_U_iso_or_equiv
_atom_site_adp_type
_atom_site_occupancy
_atom_site_site_symmetry_order
_atom_site_calc_flag
_atom_site_refinement_flags_posn
_atom_site_refinement_flags_adp
_atom_site_refinement_flags_occupancy
_atom_site_disorder_assembly
_atom_site_disorder_group
Gd1 Gd -0.99990(8) 0.250000 -0.500000 0.0253(5) Uani 1 2 d DS TU P . .
O2 O -1.6450(7) 0.1512(4) -0.4144(5) 0.0131(10) Uani 1 1 d D U . . .
O1 O -1.3570(7) 0.1625(5) -0.5969(5) 0.0150(10) Uani 1 1 d D U . . .
H1 H -1.437(4) 0.094(3) -0.638(3) 0.023 Uiso 1 1 d D U . . .
O3 O -1.1001(8) 0.4664(6) -0.6288(5) 0.0271(12) Uani 1 1 d . U . . .
O4 O -1.0599(12) 0.6756(8) -0.750000 0.0287(16) Uani 1 2 d S TU P . .
C1 C -1.0877(14) 0.5321(10) -0.750000 0.0162(17) Uani 1 2 d S TU P . .
B1 B -1.5004(13) 0.250000 -0.500000 0.014(4) Uani 1 2 d DS TU P . .
H2 H -1.537(10) 0.143(6) -0.366(3) 0.13(7) Uiso 1 1 d D . . . .
loop_
_atom_site_aniso_label
_atom_site_aniso_U_11
_atom_site_aniso_U_22
_atom_site_aniso_U_33
_atom_site_aniso_U_23
_atom_site_aniso_U_13
_atom_site_aniso_U_12
Gd1 0.0099(7) 0.0377(7) 0.0282(7) 0.0221(3) 0.000 0.000
O2 0.015(2) 0.006(2) 0.018(2) -0.0005(17) 0.0009(17) -0.0011(15)
O1 0.014(2) 0.013(2) 0.018(2) 0.0005(17) 0.0010(18) 0.0026(15)
O3 0.024(3) 0.039(3) 0.018(2) 0.011(2) 0.0065(19) 0.013(2)
O4 0.019(3) 0.008(3) 0.059(4) 0.000 0.000 -0.003(3)
C1 0.009(4) 0.014(4) 0.026(4) 0.000 0.000 0.003(3)
B1 0.008(11) 0.012(8) 0.022(11) 0.003(4) 0.000 0.000
loop_
_atom_type_symbol
_atom_type_description
_atom_type_scat_dispersion_real
_atom_type_scat_dispersion_imag
_atom_type_scat_source
C C 0.0181 0.0091 'International Tables Vol C Tables 4.2.6.8 and 6.1.1.4'
H H 0.0000 0.0000 'International Tables Vol C Tables 4.2.6.8 and 6.1.1.4'
B B 0.0090 0.0039 'International Tables Vol C Tables 4.2.6.8 and 6.1.1.4'
Gd Gd -8.8380 11.9157 'International Tables Vol C Tables 4.2.6.8 and 6.1.1.4'
O O 0.0492 0.0322 'International Tables Vol C Tables 4.2.6.8 and 6.1.1.4'
loop_
_geom_angle_atom_site_label_1
_geom_angle_atom_site_label_2
_geom_angle_atom_site_label_3
_geom_angle
_geom_angle_site_symmetry_1
_geom_angle_site_symmetry_3
_geom_angle_publ_flag
O2 Gd1 O2 56.59(18) 1_655 3_654 ?
O2 Gd1 O1 141.14(14) 3_654 3_554 ?
O2 Gd1 O1 140.63(15) 3_654 . ?
O2 Gd1 O1 140.63(15) 1_655 3_554 ?
O2 Gd1 O1 141.14(14) 1_655 . ?
O2 Gd1 O3 89.43(13) 1_655 5_364 ?
O2 Gd1 O3 89.43(13) 3_654 7_355 ?
O2 Gd1 O3 68.21(14) 1_655 7_355 ?
O2 Gd1 O3 68.21(14) 3_654 5_364 ?
O2 Gd1 C1 81.85(17) 1_655 7_355 ?
O2 Gd1 C1 80.21(18) 1_655 5_364 ?
O2 Gd1 C1 81.85(17) 3_654 5_364 ?
O2 Gd1 C1 80.21(18) 3_654 7_355 ?
O1 Gd1 O1 56.43(18) 3_554 . ?
O1 Gd1 O3 127.83(14) 3_554 7_355 ?
O1 Gd1 O3 76.58(13) . 7_355 ?
O1 Gd1 O3 127.83(14) . 5_364 ?
O1 Gd1 O3 76.58(13) 3_554 5_364 ?
O1 Gd1 C1 71.98(18) 3_554 5_364 ?
O1 Gd1 C1 71.99(18) . 7_355 ?
O1 Gd1 C1 128.41(18) . 5_364 ?
O1 Gd1 C1 128.41(18) 3_554 7_355 ?
O3 Gd1 O2 77.44(14) 3_554 1_655 ?
O3 Gd1 O2 133.03(16) . 1_655 ?
O3 Gd1 O2 77.44(14) . 3_654 ?
O3 Gd1 O2 133.03(16) 3_554 3_654 ?
O3 Gd1 O1 80.97(16) 3_554 3_554 ?
O3 Gd1 O1 80.96(16) . . ?
O3 Gd1 O1 72.04(16) . 3_554 ?
O3 Gd1 O1 72.04(16) 3_554 . ?
O3 Gd1 O3 125.0(2) 3_554 5_364 ?
O3 Gd1 O3 62.7(2) . 5_364 ?
O3 Gd1 O3 125.0(2) . 7_355 ?
O3 Gd1 O3 62.7(2) 3_554 7_355 ?
O3 Gd1 O3 149.4(2) 3_554 . ?
O3 Gd1 O3 155.0(2) 5_364 7_355 ?
O3 Gd1 O4 77.6(2) 3_554 5_364 ?
O3 Gd1 O4 107.2(2) 3_554 7_355 ?
O3 Gd1 O4 107.2(2) . 5_364 ?
O3 Gd1 O4 77.6(2) . 7_355 ?
O3 Gd1 C1 146.57(18) 5_364 7_355 ?
O3 Gd1 C1 24.33(17) 5_364 5_364 ?
O3 Gd1 C1 84.61(19) . 5_364 ?
O3 Gd1 C1 84.61(19) 3_554 7_355 ?
O3 Gd1 C1 24.33(17) 7_355 7_355 ?
O3 Gd1 C1 100.80(18) . 7_355 ?
O3 Gd1 C1 100.80(18) 3_554 5_364 ?
O3 Gd1 C1 146.57(18) 7_355 5_364 ?
O4 Gd1 O2 70.2(2) 7_355 3_654 ?
O4 Gd1 O2 94.00(19) 5_364 3_654 ?
O4 Gd1 O2 94.00(19) 7_355 1_655 ?
O4 Gd1 O2 70.2(2) 5_364 1_655 ?
O4 Gd1 O1 123.9(2) 5_364 . ?
O4 Gd1 O1 73.2(2) 7_355 . ?
O4 Gd1 O1 73.2(2) 5_364 3_554 ?
O4 Gd1 O1 123.9(2) 7_355 3_554 ?
O4 Gd1 O3 48.04(18) 5_364 5_364 ?
O4 Gd1 O3 48.04(18) 7_355 7_355 ?
O4 Gd1 O3 127.06(19) 7_355 5_364 ?
O4 Gd1 O3 127.06(19) 5_364 7_355 ?
O4 Gd1 O4 162.4(4) 5_364 7_355 ?
O4 Gd1 C1 149.4(2) 7_355 5_364 ?
O4 Gd1 C1 149.4(2) 5_364 7_355 ?
O4 Gd1 C1 23.8(2) 5_364 5_364 ?
O4 Gd1 C1 23.8(2) 7_355 7_355 ?
C1 Gd1 C1 159.6(3) 5_364 7_355 ?
Gd1 O2 H2 159(4) 1_455 . ?
B1 O2 Gd1 98.8(3) . 1_455 ?
B1 O2 H2 81(4) . . ?
Gd1 O1 H1 150(2) . . ?
B1 O1 Gd1 98.6(3) . . ?
B1 O1 H1 107.1(17) . . ?
Gd1 O3 Gd1 117.3(2) . 5_364 ?
C1 O3 Gd1 144.2(5) . . ?
C1 O3 Gd1 86.8(5) . 5_364 ?
Gd1 O4 Gd1 143.5(3) 5_364 2_364 ?
C1 O4 Gd1 106.92(17) . 5_364 ?
C1 O4 Gd1 106.92(17) . 2_364 ?
Gd1 C1 Gd1 97.6(3) 5_364 2_364 ?
O3 C1 Gd1 68.8(4) . 5_364 ?
O3 C1 Gd1 68.8(4) 6_554 2_364 ?
O3 C1 Gd1 165.9(6) 6_554 5_364 ?
O3 C1 Gd1 165.9(6) . 2_364 ?
O3 C1 O3 124.3(9) . 6_554 ?
O3 C1 O4 117.8(5) 6_554 . ?
O3 C1 O4 117.8(5) . . ?
O4 C1 Gd1 49.29(14) . 2_364 ?
O4 C1 Gd1 49.29(14) . 5_364 ?
Gd1 B1 Gd1 180.0 1_455 . ?
Gd1 B1 H2 82(2) 1_455 . ?
Gd1 B1 H2 98(2) . . ?
O2 B1 Gd1 127.1(3) 3_554 . ?
O2 B1 Gd1 52.9(3) 3_554 1_455 ?
O2 B1 Gd1 127.1(3) . . ?
O2 B1 Gd1 52.9(3) . 1_455 ?
O2 B1 O2 105.8(6) . 3_554 ?
O2 B1 H2 134(2) 3_554 . ?
O2 B1 H2 30(2) . . ?
O1 B1 Gd1 53.2(3) . . ?
O1 B1 Gd1 126.8(3) 3_554 1_455 ?
O1 B1 Gd1 126.8(3) . 1_455 ?
O1 B1 Gd1 53.2(3) 3_554 . ?
O1 B1 O2 111.7(3) . . ?
O1 B1 O2 111.7(3) 3_554 3_554 ?
O1 B1 O2 110.7(3) 3_554 . ?
O1 B1 O2 110.7(3) . 3_554 ?
O1 B1 O1 106.4(6) . 3_554 ?
O1 B1 H2 104(2) . . ?
O1 B1 H2 86.2(18) 3_554 . ?
loop_
_geom_bond_atom_site_label_1
_geom_bond_atom_site_label_2
_geom_bond_distance
_geom_bond_site_symmetry_2
_geom_bond_publ_flag
Gd1 O2 2.487(4) 1_655 ?
Gd1 O2 2.487(4) 3_654 ?
Gd1 O1 2.500(4) . ?
Gd1 O1 2.500(4) 3_554 ?
Gd1 O3 2.341(5) . ?
Gd1 O3 2.851(6) 5_364 ?
Gd1 O3 2.341(5) 3_554 ?
Gd1 O3 2.851(6) 7_355 ?
Gd1 O4 2.418(2) 5_364 ?
Gd1 O4 2.418(2) 7_355 ?
Gd1 C1 3.052(6) 5_364 ?
Gd1 C1 3.052(6) 7_355 ?
O2 B1 1.478(6) . ?
O2 H2 0.80(5) . ?
O1 H1 0.872(9) . ?
O1 B1 1.476(6) . ?
O3 C1 1.259(7) . ?
O4 C1 1.287(11) . ?
B1 H2 1.57(4) . ?
loop_
_geom_torsion_atom_site_label_1
_geom_torsion_atom_site_label_2
_geom_torsion_atom_site_label_3
_geom_torsion_atom_site_label_4
_geom_torsion
_geom_torsion_site_symmetry_1
_geom_torsion_site_symmetry_2
_geom_torsion_site_symmetry_3
_geom_torsion_site_symmetry_4
_geom_torsion_publ_flag
Gd1 O2 B1 Gd1 180.000(0) 1_455 . . . ?
Gd1 O2 B1 O2 -0.001(1) 1_455 . . 3_554 ?
Gd1 O2 B1 O1 -120.5(4) 1_455 . . . ?
Gd1 O2 B1 O1 121.2(4) 1_455 . . 3_554 ?
Gd1 O1 B1 Gd1 180.000(0) . . . 1_455 ?
Gd1 O1 B1 O2 -120.9(4) . . . . ?
Gd1 O1 B1 O2 121.5(4) . . . 3_554 ?
Gd1 O1 B1 O1 0.000(1) . . . 3_554 ?
Gd1 O3 C1 Gd1 17(2) 5_364 . . 2_364 ?
Gd1 O3 C1 Gd1 -118(2) . . . 2_364 ?
Gd1 O3 C1 Gd1 -135.2(8) . . . 5_364 ?
Gd1 O3 C1 O3 39.1(15) . . . 6_554 ?
Gd1 O3 C1 O3 174.3(8) 5_364 . . 6_554 ?
Gd1 O3 C1 O4 -5.5(8) 5_364 . . . ?
Gd1 O3 C1 O4 -140.7(8) . . . . ?
Gd1 O4 C1 Gd1 -166.2(6) 5_364 . . 2_364 ?
Gd1 O4 C1 Gd1 166.2(6) 2_364 . . 5_364 ?
Gd1 O4 C1 O3 -173.0(6) 5_364 . . 6_554 ?
Gd1 O4 C1 O3 6.8(9) 5_364 . . . ?
Gd1 O4 C1 O3 173.0(6) 2_364 . . . ?
Gd1 O4 C1 O3 -6.8(9) 2_364 . . 6_554 ?
