#------------------------------------------------------------------------------
#$Date: 2020-08-28 02:29:08 +0300 (Fri, 28 Aug 2020) $
#$Revision: 255698 $
#$URL: file:///home/coder/svn-repositories/cod/cif/8/00/04/8000449.cif $
#------------------------------------------------------------------------------
#
# This file is available in the Crystallography Open Database (COD),
# http://www.crystallography.net/
#
# All data on this site have been placed in the public domain by the
# contributors.
#
data_8000449
loop_
_publ_author_name
'Frankhouser, Amy D.'
'Kanan, Matthew W.'
_publ_section_title
;
 Phase Behavior That Enables Solvent-Free Carbonate-Promoted Furoate
 Carboxylation.
;
_journal_name_full               'The journal of physical chemistry letters'
_journal_page_first              7544
_journal_page_last               7551
_journal_paper_doi               10.1021/acs.jpclett.0c02210
_journal_year                    2020
_chemical_formula_moiety         'C5 H3 K O3'
_chemical_formula_sum            'C5 H3 K O3'
_chemical_formula_weight         150.17
_chemical_melting_point          663
_chemical_name_common            'potassium 2-furoate'
_chemical_name_systematic
'furan-2-carboxylic acid, potassium salt (1:1)'
_chemical_properties_physical    hygroscopic
_space_group_crystal_system      orthorhombic
_space_group_IT_number           19
_space_group_name_Hall           'P 2ac 2ab'
_space_group_name_H-M_alt        'P 21 21 21'
_atom_sites_solution_hydrogens   geom
_atom_sites_solution_primary     'intrinsic phasing'
_atom_sites_solution_secondary   difmap
_audit_creation_date             2020-01-29
_audit_creation_method
;
Olex2 1.2
(compiled May 18 2018 14:05:52 for OlexSys, GUI svn.r5506)
;
_cell_angle_alpha                90
_cell_angle_beta                 90
_cell_angle_gamma                90
_cell_formula_units_Z            4
_cell_length_a                   3.9649(2)
_cell_length_b                   5.7919(4)
_cell_length_c                   25.7992(16)
_cell_measurement_reflns_used    9923
_cell_measurement_temperature    100
_cell_measurement_theta_max      28.22
_cell_measurement_theta_min      3.16
_cell_volume                     592.46(6)
_computing_cell_refinement       'SAINT v8.37A (Bruker, 2015)'
_computing_data_collection       'Bruker APEX-II'
_computing_data_reduction        'SAINT v8.37A (Bruker, 2015)'
_computing_molecular_graphics    'Olex2 (Dolomanov et al., 2009)'
_computing_publication_material  'Olex2 (Dolomanov et al., 2009)'
_computing_structure_refinement  'ShelXL (Sheldrick, 2015)'
_computing_structure_solution    'SHELXT 2014/5 (Sheldrick, 2014)'
_diffrn_ambient_temperature      100
_diffrn_detector                 'Bruker Photon100'
_diffrn_detector_area_resol_mean 10.4
_diffrn_detector_type            'CMOS area detector'
_diffrn_measured_fraction_theta_full 0.999
_diffrn_measured_fraction_theta_max 0.998
_diffrn_measurement_device       'four-circle diffractometer'
_diffrn_measurement_device_type  D8Venture
_diffrn_measurement_method       '\f and \w scans'
_diffrn_radiation_probe          x-ray
_diffrn_radiation_type           MoK\a
_diffrn_radiation_wavelength     0.71073
_diffrn_reflns_av_R_equivalents  0.0555
_diffrn_reflns_av_unetI/netI     0.0261
_diffrn_reflns_Laue_measured_fraction_full 0.999
_diffrn_reflns_Laue_measured_fraction_max 0.998
_diffrn_reflns_limit_h_max       5
_diffrn_reflns_limit_h_min       -5
_diffrn_reflns_limit_k_max       7
_diffrn_reflns_limit_k_min       -7
_diffrn_reflns_limit_l_max       34
_diffrn_reflns_limit_l_min       -34
_diffrn_reflns_number            22379
_diffrn_reflns_point_group_measured_fraction_full 0.999
_diffrn_reflns_point_group_measured_fraction_max 0.998
_diffrn_reflns_theta_full        25.242
_diffrn_reflns_theta_max         28.304
_diffrn_reflns_theta_min         3.158
_diffrn_source                   'microfocus sealed X-ray tube'
_diffrn_source_type              'Incoatec I\ms'
_diffrn_standards_number         0
_exptl_absorpt_coefficient_mu    0.815
_exptl_absorpt_correction_T_max  0.7457
_exptl_absorpt_correction_T_min  0.7002
_exptl_absorpt_correction_type   multi-scan
_exptl_absorpt_process_details
;
SADABS-2016/2 (Bruker,2016) was used for absorption correction.
wR2(int) was 0.0946 before and 0.0657 after correction.
The Ratio of minimum to maximum transmission is 0.9390.
The \l/2 correction factor is Not present.
;
_exptl_crystal_colour            colourless
_exptl_crystal_colour_primary    colourless
_exptl_crystal_density_diffrn    1.684
_exptl_crystal_density_meas      ?
_exptl_crystal_density_method    'not measured'
_exptl_crystal_description       needle
_exptl_crystal_F_000             304
_exptl_crystal_recrystallization_method
'ambient temperature vapor diffusion of diethyl ether into methanol'
_exptl_crystal_size_max          0.45
_exptl_crystal_size_mid          0.085
_exptl_crystal_size_min          0.06
_refine_diff_density_max         0.424
_refine_diff_density_min         -0.275
_refine_diff_density_rms         0.066
_refine_ls_abs_structure_details
;
 Refined as an inversion twin.
;
_refine_ls_abs_structure_Flack   0.46(8)
_refine_ls_extinction_method     none
_refine_ls_goodness_of_fit_ref   1.079
_refine_ls_hydrogen_treatment    constr
_refine_ls_matrix_type           full
_refine_ls_number_parameters     83
_refine_ls_number_reflns         1480
_refine_ls_number_restraints     0
_refine_ls_restrained_S_all      1.079
_refine_ls_R_factor_all          0.0355
_refine_ls_R_factor_gt           0.0290
_refine_ls_shift/su_max          0.000
_refine_ls_shift/su_mean         0.000
_refine_ls_structure_factor_coef Fsqd
_refine_ls_weighting_details
'w=1/[\s^2^(Fo^2^)+(0.0175P)^2^+0.4023P] where P=(Fo^2^+2Fc^2^)/3'
_refine_ls_weighting_scheme      calc
_refine_ls_wR_factor_gt          0.0552
_refine_ls_wR_factor_ref         0.0572
_reflns_Friedel_coverage         0.608
_reflns_Friedel_fraction_full    1.000
_reflns_Friedel_fraction_max     0.998
_reflns_number_gt                1356
_reflns_number_total             1480
_reflns_threshold_expression     'I > 2\s(I)'
_cod_data_source_file            jz0c02210_si_002.cif
_cod_data_source_block           k-furoate
_cod_depositor_comments
;
The following automatic conversions were performed:

data item '_exptl_crystal_density_meas' value 'not measured' was
changed to '?' -- the value is perceived as not measured.

data item '_atom_sites_solution_secondary' value 'diffmap' was
changed to 'difmap'.

Automatic conversion script
Id: cif_fix_values 7556 2019-12-06 15:28:31Z antanas 
;
_cod_database_code               8000449
_shelx_shelxl_version_number     2016/6
_shelx_space_group_comment
;
The symmetry employed for this shelxl refinement is uniquely defined
by the following loop, which should always be used as a source of
symmetry information in preference to the above space-group names.
They are only intended as comments.
;
_shelx_estimated_absorpt_t_max   0.953
_shelx_estimated_absorpt_t_min   0.711
_olex2_refinement_description
;
1. Twinned data refinement
 Scales: 0.54(8)
 0.46(8)
2. Fixed Uiso
 At 1.2 times of:
  All C(H) groups
3.a Aromatic/amide H refined with riding coordinates:
 C007(H007), C008(H008), C009(H009)
;
_shelx_res_file
;
TITL K-furoate in P2(1)2(1)2(1)
    k-furoate.res
    created by SHELXL-2016/6 at 14:03:46 on 29-Jan-2020
REM Old TITL N2p182_3_1_noDec in P2(1)2(1)2(1)
REM SHELXT solution in P2(1)2(1)2(1)
REM R1 0.051, Rweak 0.012, Alpha 0.005, Orientation as input
REM Flack x = 0.470 ( 0.028 ) from Parsons quotients
REM Formula found by SHELXT: C5 K O3
CELL 0.71073 3.9649 5.7919 25.7992 90 90 90
ZERR 4 0.0002 0.0004 0.0016 0 0 0
LATT -1
SYMM 0.5-X,-Y,0.5+Z
SYMM -X,0.5+Y,0.5-Z
SYMM 0.5+X,0.5-Y,-Z
SFAC C H K O
UNIT 20 12 4 12

L.S. 10
PLAN  5
SIZE 0.06 0.085 0.45
BOND $H
MORE -1
fmap 2
acta
TWIN -1 0 0 0 -1 0 0 0 -1 2
REM <olex2.extras>
REM <HklSrc "%./K-furoate.hkl">
REM </olex2.extras>

WGHT    0.017500    0.402300
BASF   0.46090
FVAR       1.02256
K001  3   -0.214833   -0.010139    0.294800    11.00000    0.00995    0.00706 =
         0.01517    0.00045   -0.00112    0.00035
O002  4    0.275713    0.680566    0.303984    11.00000    0.01526    0.00869 =
         0.01500    0.00079   -0.00128    0.00022
O003  4    0.275681    0.294672    0.310184    11.00000    0.01440    0.00772 =
         0.01935   -0.00227   -0.00156   -0.00119
O004  4    0.615294    0.720397    0.394995    11.00000    0.02039    0.01266 =
         0.01521   -0.00225   -0.00472   -0.00312
C005  1    0.339400    0.494624    0.326542    11.00000    0.00732    0.01074 =
         0.01336    0.00026    0.00183    0.00201
C006  1    0.513923    0.506148    0.377726    11.00000    0.01210    0.00961 =
         0.01175   -0.00042    0.00250   -0.00104
C007  1    0.756985    0.460513    0.454993    11.00000    0.01965    0.02973 =
         0.01320    0.00416   -0.00279    0.00549
AFIX  43
H007  2    0.841081    0.394053    0.485156    11.00000   -1.20000
AFIX   0
C008  1    0.762894    0.685860    0.442167    11.00000    0.02084    0.02679 =
         0.01302   -0.00394   -0.00288    0.00006
AFIX  43
H008  2    0.854919    0.802036    0.462641    11.00000   -1.20000
AFIX   0
C009  1    0.595779    0.344223    0.413007    11.00000    0.01847    0.01346 =
         0.01780    0.00128    0.00188    0.00240
AFIX  43
H009  2    0.554969    0.186503    0.410482    11.00000   -1.20000
AFIX   0
HKLF 4




REM  K-furoate in P2(1)2(1)2(1)
REM R1 =  0.0290 for    1356 Fo > 4sig(Fo)  and  0.0355 for all    1480 data
REM     83 parameters refined using      0 restraints

END

WGHT      0.0175      0.4023

REM Highest difference peak  0.424,  deepest hole -0.275,  1-sigma level  0.066
Q1    1   0.4711  0.5018  0.3491  11.00000  0.05    0.42
Q2    1   0.5389  0.6029  0.3856  11.00000  0.05    0.27
Q3    1   0.7756  0.9969  0.4918  11.00000  0.05    0.23
Q4    1   0.5395  0.4169  0.3918  11.00000  0.05    0.22
Q5    1   0.3387  0.0750  0.2531  11.00000  0.05    0.22
;
_shelx_res_checksum              66599
_shelx_hkl_file
;
   1   0   0    0.10    4.90
   1   0   0   -3.70    4.20
   1   0   0   -1.80    4.60
  -1   0   0   -6.10    4.50
  -1   0   0    4.30    5.20
   1   0   0   -3.00    4.10
   1   0   0   -1.20    4.70
   1   0   0    0.10    1.40
   1   0   0   -1.80    3.90
   1   0   0    6.80    5.30
  -1   0   0    3.40    4.80
  -1   0   0   -2.80    4.70
  -1   0   0   -1.40    4.40
   2   0   0 7642.73  191.58
   2   0   0 7610.74  187.18
   2   0   0 7779.02  190.08
   2   0   0 7729.33  191.38
   2   0   0 7216.78  188.28
   2   0   0 7389.66  186.68
   2   0   0 7735.93  190.88
  -2   0   0 7407.06  189.48
  -2   0   0 7184.58  189.98
   2   0   0 7034.40  190.48
  -2   0   0 7323.37  190.08
  -2   0   0 7525.25  187.98
  -2   0   0 7468.75  192.18
   3   0   0   36.40   15.70
   3   0   0   -9.90    8.00
   3   0   0   -7.50   16.90
  -3   0   0   -2.00   12.30
   3   0   0    3.10    9.50
   3   0   0   -7.50    7.70
   3   0   0   -9.70   11.30
   3   0   0   33.70   16.50
   3   0   0   -3.50   14.20
  -3   0   0    2.60   11.60
  -3   0   0   -8.30   10.40
   4   0   0  830.82   24.90
   4   0   0  771.42   47.30
  -4   0   0  830.92   54.89
  -4   0   0  793.92   56.09
   4   0   0  822.62   42.30
   4   0   0  841.32   47.70
   4   0   0  832.72   24.60
   4   0   0  847.62   41.10
   5   0   0   35.60   26.60
  -5   0   0   34.00   33.70
   5   0   0   16.90   28.90
   0  -1   0    0.10    2.40
   0  -1   0    1.00    2.50
   0  -1   0   -0.10    2.80
   0   1   0    2.10    3.00
   0  -1   0   -2.30    2.80
   0   1   0    0.00    3.00
   0   1   0    0.90    3.40
   0  -1   0    2.20    3.50
   0   1   0    0.30    2.30
   0   1   0    1.50    2.50
   0  -1   0   -0.70    2.70
   0   1   0   -3.20    2.70
   1  -1   0 3572.94   89.39
   1  -1   0 3383.46   83.99
   1  -1   0 3486.85   83.99
   1  -1   0 3509.75   85.19
  -1   1   0 3286.07   85.29
   1  -1   0 3265.77   81.09
   1  -1   0 3373.66   82.39
  -1   1   0 3416.56   87.59
   1   1   0 3422.56   85.49
   1   1   0 3510.65   91.59
   1   1   0 3415.86   82.89
   1   1   0 3509.85   90.19
   1   1   0 3471.05   84.19
  -1  -1   0 3332.37   81.59
  -1  -1   0 3356.36   81.39
  -1  -1   0 3358.16   83.79
  -1  -1   0 3379.16   83.69
  -1  -1   0 3427.66   81.09
  -1   1   0 3215.18   81.49
   1   1   0 3530.85   89.19
  -1   1   0 3359.16   83.09
  -1   1   0 3273.47   91.59
   1  -1   0 3382.26   84.29
   1   1   0 3328.27   82.99
   1   1   0 3365.86   85.19
   1   1   0 3409.16   82.59
   1  -1   0 3332.27   86.59
   2  -1   0   22.60    8.80
   2  -1   0   26.40    4.90
   2  -1   0   24.40    5.00
  -2  -1   0   33.40    9.80
  -2   1   0   19.60    8.30
  -2   1   0   15.10    8.70
   2  -1   0   10.20    8.90
  -2   1   0   23.00    9.10
  -2   1   0   11.60    9.40
   2  -1   0   27.50    5.20
   2  -1   0   20.80    7.30
   2  -1   0   28.00    4.80
   2  -1   0    9.10    9.30
  -2  -1   0   21.30    7.80
   2   1   0   15.40    5.00
   2   1   0   27.10    5.70
   2   1   0    3.00   10.60
   2   1   0   25.10   13.40
   2  -1   0   34.10    9.40
  -2   1   0   14.50    7.30
   2   1   0   31.00   11.70
   2   1   0   20.50    4.50
  -2  -1   0   28.20    5.40
   2  -1   0   18.50    9.60
   2  -1   0   28.20    9.50
   2   1   0   34.00    6.00
   2   1   0   29.10    9.70
  -2  -1   0   31.90    5.40
  -2  -1   0   33.10   10.30
   2   1   0   34.50    9.60
   2   1   0   44.40    9.30
   3   1   0  943.01   35.30
   3  -1   0  967.50   28.40
   3   1   0  990.90   41.80
  -3  -1   0  945.61   48.00
   3  -1   0  931.61   48.90
   3  -1   0  915.71   23.90
   3  -1   0  939.91   24.00
   3   1   0  926.31   27.70
  -3   1   0  943.21   49.80
  -3   1   0  928.01   44.50
   3  -1   0  921.41   33.10
  -3  -1   0  946.41   48.40
  -3   1   0  939.41   45.00
   3   1   0  936.71   29.10
   3   1   0  933.51   45.20
   3  -1   0  909.31   41.40
   3  -1   0  949.11   37.80
   3   1   0  967.90   46.60
   3   1   0  937.51   53.19
   3  -1   0  917.21   44.60
  -3  -1   0  937.71   41.90
   3  -1   0  791.72   46.60
   3  -1   0  921.31   44.00
   4  -1   0   12.10    9.50
  -4  -1   0   18.20   19.60
  -4   1   0   31.20   22.70
   4   1   0   12.60   10.90
   4  -1   0    6.90   14.90
   4  -1   0    0.20   14.40
   4   1   0   14.40   21.30
  -4   1   0   10.00   21.50
  -4  -1   0   44.60   24.30
   4  -1   0   11.90   15.70
   5  -1   0   47.10   26.00
   5   1   0   62.69   28.60
   5   1   0   15.20   32.70
  -5   1   0  -33.20   34.10
  -5   1   0  -17.50   33.70
  -5  -1   0  -51.49   30.80
   0  -2   0  626.74   23.10
   0  -2   0  575.14   22.90
   0   2   0  635.64   23.30
   0  -2   0  569.74   23.10
   0  -2   0  561.94   24.80
   0   2   0  588.24   23.80
   0   2   0  621.94   19.50
   0  -2   0  580.44   20.00
   0  -2   0  624.94   26.10
   0  -2   0  603.74   25.80
   0   2   0  607.44   22.90
   0   2   0  557.24   24.00
   1  -2   0    1.30    5.50
  -1   2   0   -1.20    2.60
   1   2   0   -4.90    6.10
  -1  -2   0   -5.00    6.50
  -1  -2   0   -0.30    3.20
   1   2   0   -2.10    5.30
  -1   2   0   -0.90    5.70
  -1   2   0    0.00    3.50
  -1   2   0    4.20    4.10
  -1   2   0   -1.30    6.30
   1  -2   0   -0.80    4.80
   1  -2   0    3.00    7.60
   1  -2   0   -2.00    2.70
   1  -2   0    2.30    6.70
   1  -2   0    5.30    6.60
   1  -2   0    7.30    5.50
   1  -2   0    0.50    3.90
   1   2   0   -2.50    5.00
  -1  -2   0   -6.60    5.00
  -1  -2   0    2.10    4.00
  -1  -2   0   -3.90    6.20
   1   2   0    8.80    5.30
   1   2   0   11.60    7.90
  -1  -2   0   -8.40    5.70
   1   2   0    3.50    4.40
  -1  -2   0    4.40    4.90
   1   2   0    2.40    5.70
   2  -2   0  231.88   16.70
   2   2   0  247.78   25.20
   2   2   0  284.27   23.80
   2  -2   0  266.27   13.70
   2   2   0  286.47   18.60
   2   2   0  234.88   19.50
   2  -2   0  269.17   17.20
   2   2   0  277.57   28.50
  -2  -2   0  266.87   17.60
  -2  -2   0  296.47   24.50
  -2  -2   0  253.37   16.50
  -2   2   0  236.38   24.40
  -2   2   0  280.87   21.90
  -2   2   0  256.47   19.50
  -2   2   0  244.08   21.10
  -2   2   0  280.47   16.30
   2  -2   0  242.68   17.40
   2  -2   0  269.17   24.40
   2   2   0  264.97   16.90
  -2  -2   0  284.27   15.80
   2  -2   0  285.37   17.90
   2  -2   0  297.07   25.00
   2   2   0  253.57   14.90
   2  -2   0  266.67   18.10
  -2  -2   0  280.67   18.60
  -2  -2   0  253.87   23.30
   3  -2   0    8.60    8.10
  -3   2   0   18.80   15.50
   3   2   0    3.20    8.50
   3  -2   0    9.50    8.50
  -3   2   0   19.90   19.10
  -3   2   0  -13.80   13.00
   3  -2   0   14.00    4.30
   3   2   0    8.20    8.30
   3   2   0    7.50   13.80
   3   2   0   14.70    6.70
  -3  -2   0   -4.90    8.30
   3   2   0   25.50   11.30
   3  -2   0    8.40    7.90
   3  -2   0  -11.90   10.90
   3  -2   0  -13.80   13.40
   3  -2   0    9.30    7.20
  -3   2   0    7.80   14.10
  -3  -2   0   20.30   17.10
  -3  -2   0    1.20   11.60
  -3  -2   0   -9.40   15.00
   3   2   0  -19.40   13.40
   3  -2   0    3.90   16.70
   4  -2   0  282.37   26.10
   4   2   0  266.37   24.30
   4   2   0  284.77   21.50
  -4   2   0  349.96   40.70
  -4  -2   0  305.47   46.30
   4   2   0  263.37   41.00
  -4   2   0  333.57   40.30
  -4  -2   0  320.87   34.50
  -4   2   0  271.07   40.20
   5  -2   0   19.30   30.40
  -5   2   0   22.40   39.50
   5   2   0   13.60   30.80
   5   2   0   48.90   35.90
  -5  -2   0  -68.49   35.80
  -5  -2   0   25.30   33.50
   5  -2   0   54.49   42.80
   0  -3   0    4.40    7.30
   0   3   0    0.00    4.30
   0   3   0    2.80    6.80
   0  -3   0    2.40    5.70
   0  -3   0   -1.00    6.30
   0  -3   0    2.90    7.80
   0  -3   0  -15.60    8.60
   0   3   0    4.40    8.00
   0   3   0    2.40    5.60
   0  -3   0    1.30    7.70
   0  -3   0   -1.90    5.70
   0  -3   0   -2.50    5.40
  -1   3   0 1282.07   36.90
   1   3   0 1203.58   42.00
  -1  -3   0 1212.58   44.90
  -1   3   0 1167.88   48.10
   1  -3   0 1205.08   42.50
  -1  -3   0 1199.18   46.60
   1  -3   0 1199.88   44.80
   1  -3   0 1225.48   46.70
  -1  -3   0 1236.28   41.00
   1   3   0 1181.18   44.80
  -1  -3   0 1254.87   41.20
  -1   3   0 1253.27   44.20
  -1   3   0 1174.98   43.10
   1  -3   0 1160.88   41.60
   1  -3   0 1177.58   43.60
  -1  -3   0 1160.28   44.50
   1   3   0 1192.88   41.70
   1   3   0 1209.08   43.70
   1  -3   0 1197.78   46.40
   1  -3   0 1184.58   46.40
   1   3   0 1232.28   44.50
  -1  -3   0 1140.09   45.90
  -1  -3   0 1281.67   43.70
  -2  -3   0  183.08   14.40
   2  -3   0  160.68   18.40
   2  -3   0  153.48   24.40
  -2   3   0  187.18   18.50
   2   3   0  181.28   25.50
   2   3   0  172.78   16.80
   2  -3   0  186.88   25.10
  -2  -3   0  172.48   13.20
   2   3   0  191.78   30.20
   2   3   0  207.18   19.20
   2   3   0  175.78   20.80
   2  -3   0  177.68   12.50
   2  -3   0  176.58   17.00
   2  -3   0  195.38   21.10
  -2  -3   0  181.48   13.60
  -2   3   0  163.18   11.90
  -2  -3   0  186.68   21.70
   2   3   0  199.78   18.70
  -2   3   0  193.48   15.00
  -2  -3   0  201.78   16.00
  -2   3   0  178.48   21.70
   2  -3   0  166.98   18.10
  -2   3   0  207.68   26.90
   2  -3   0  177.48   18.30
  -2  -3   0  190.08   24.10
   2   3   0  138.19   23.90
  -2  -3   0  140.79   16.80
   2  -3   0  194.28   27.50
   2   3   0  176.18   15.90
  -2  -3   0  177.28   23.30
   3  -3   0    4.80   11.00
  -3   3   0    5.70   17.20
   3  -3   0   30.80   14.30
   3  -3   0    0.40   12.10
   3   3   0   16.90   11.70
   3   3   0   20.30   15.90
   3   3   0   17.60    8.70
  -3   3   0   21.50   20.90
   3  -3   0   22.60   13.80
  -3  -3   0   18.00   12.90
   3  -3   0   35.40   14.90
  -3  -3   0   10.10   11.40
   3  -3   0   13.90    8.00
  -3   3   0    4.90   14.70
  -3   3   0   14.70   18.30
  -3   3   0   28.50   12.60
  -3  -3   0   14.50   17.50
  -3  -3   0   23.20   17.00
  -3  -3   0   28.50   15.20
   3   3   0   20.30   13.90
   3   3   0   10.10   16.20
  -4   3   0   12.40   27.80
  -4  -3   0    2.50   31.10
   4   3   0    7.30   16.40
   4  -3   0    9.00   13.60
   4  -3   0   16.70   12.70
  -4   3   0   20.10   22.50
   4  -3   0   -5.30   14.20
  -4  -3   0   18.30   19.20
   4  -3   0   33.10   20.40
   4   3   0   54.19   29.40
   0  -4   0 4031.40  109.19
   0  -4   0 4056.09  123.09
   0   4   0 4176.58  117.89
   0  -4   0 4105.89  116.79
   0  -4   0 4233.18  115.99
   0   4   0 4288.47  113.09
   0  -4   0 4226.28  118.59
   0  -4   0 3945.71  118.39
   0   4   0 4206.78  117.39
   0  -4   0 4049.19  123.19
   0   4   0 4055.09  120.69
   0   4   0 4395.26  105.19
   0  -4   0 4224.48  109.19
  -1   4   0    0.90   11.80
   1  -4   0    7.00   12.80
   1  -4   0   10.80   13.90
   1   4   0    3.50   13.20
   1   4   0   -2.00    9.20
  -1  -4   0    6.70   15.80
  -1  -4   0    5.70   14.20
  -1  -4   0   -8.30    8.50
  -1  -4   0    0.00   11.80
   1   4   0   11.10   11.50
  -1   4   0    6.10    8.10
  -1  -4   0   20.00    9.90
   1  -4   0    7.50    9.00
   1  -4   0    2.20   13.30
  -1  -4   0   -0.50    9.60
  -1  -4   0   10.30   10.60
   1  -4   0   35.00   14.90
   1   4   0    9.30   11.00
  -1   4   0   16.40   10.60
   1  -4   0   -3.40    8.20
   2  -4   0  868.31   42.00
  -2   4   0  851.81   31.10
   2  -4   0  932.81   46.20
  -2  -4   0  832.12   44.40
   2   4   0  850.01   43.60
   2  -4   0  810.72   44.10
  -2  -4   0  896.91   48.60
  -2   4   0  917.91   33.20
  -2  -4   0  863.11   37.70
   2  -4   0  849.02   40.00
  -2  -4   0  860.91   47.30
  -2  -4   0  853.71   37.40
  -2   4   0  897.71   52.39
   2  -4   0  904.71   40.50
  -2  -4   0  866.21   35.40
  -2  -4   0  860.91   29.10
   2   4   0  822.72   37.30
  -2   4   0  847.52   37.10
  -3   4   0    0.50   16.40
  -3  -4   0   14.40   23.00
   3   4   0    4.00   20.60
  -3  -4   0    5.50   11.60
   3  -4   0   24.90   17.90
   3   4   0    7.30   11.40
   3   4   0    3.10   17.50
   3   4   0   18.10   21.50
  -3   4   0   33.00   22.70
   3  -4   0    6.00   15.00
  -3  -4   0  -16.00   19.20
   3  -4   0   10.20   14.00
  -4   4   0  308.77   57.69
   4   4   0  226.18   37.50
   4  -4   0  265.67   35.10
  -4  -4   0  224.48   42.80
   4  -4   0  278.77   34.50
   4  -4   0  241.88   38.90
   4   4   0  344.17   56.29
   0  -5   0   -3.40   13.70
   0   5   0   30.60   13.30
   0   5   0    4.50   14.80
   0  -5   0    5.10   19.50
   0  -5   0   13.20   14.80
   0  -5   0   16.60   10.60
   0   5   0   38.50   14.70
   0  -5   0  -12.10   19.80
   1  -5   0 1654.53   63.39
   1  -5   0 1636.34   71.69
   1  -5   0 1562.14   69.49
   1   5   0 1652.53   60.29
   1  -5   0 1558.74   61.59
  -1  -5   0 1649.73   72.09
   1   5   0 1599.04   67.49
  -1  -5   0 1656.83   64.79
   1   5   0 1647.04   58.29
  -1   5   0 1717.43   55.39
  -1   5   0 1524.65   69.29
   1  -5   0 1587.54   64.59
  -1  -5   0 1685.53   48.50
  -1  -5   0 1593.24   60.19
  -1  -5   0 1664.63   62.09
  -2   5   0   42.90   28.90
  -2  -5   0   64.19   10.20
  -2   5   0   54.49   11.00
   2   5   0   85.89   17.30
  -2  -5   0   70.79   24.50
  -2  -5   0   53.89   15.20
  -2  -5   0  111.39   24.00
  -2   5   0   96.19   16.90
  -2  -5   0   58.69   27.60
   2   5   0   74.69   21.20
  -2   5   0   77.69   15.70
   2  -5   0   93.29   24.50
   2  -5   0   29.80   25.00
   2  -5   0   79.79   19.20
   3  -5   0  821.62   53.59
   3  -5   0  749.23   46.50
   3   5   0  948.01   43.50
   3   5   0  790.72   53.29
   3   5   0  756.12   60.59
  -3   5   0  893.91   70.59
  -3  -5   0  849.81   62.79
   3  -5   0  744.43   45.90
  -4   5   0  -59.19   37.40
   4  -5   0   29.40   25.90
   4  -5   0  -43.30   26.80
   4  -5   0   39.50   27.00
  -4  -5   0   69.89   63.49
   4   5   0   96.19   51.09
   0   6   0 2415.46   93.69
   0  -6   0 2384.06   90.39
   0   6   0 2410.86   90.19
   0  -6   0 2446.96  101.69
   0  -6   0 2487.75   87.29
  -1  -6   0   63.79   22.30
  -1  -6   0   49.90   23.00
   1  -6   0   78.29   27.10
  -1   6   0   65.89   29.10
   1   6   0   31.00   19.90
  -1  -6   0   55.49   27.80
   1  -6   0   75.39   21.00
   1   6   0   59.59   17.50
   1  -6   0   80.19   20.30
  -2   6   0  716.63   43.70
   2  -6   0  733.13   48.00
   2  -6   0  689.83   47.40
  -2   6   0  654.83   64.69
   2   6   0  719.83   37.90
  -2  -6   0  502.05   61.89
  -2   6   0  689.73   35.30
  -2  -6   0  721.83   55.59
   2  -6   0  577.04   59.39
   2   6   0  600.84   50.09
   3   6   0  -18.50   27.90
   3   6   0   76.29   38.50
  -3   6   0   10.40   39.70
   3  -6   0   82.19   31.80
  -3  -6   0   52.69   34.30
   3  -6   0   34.00   29.40
   0   7   0  -17.30   31.10
   0  -7   0   33.60   23.10
   0  -7   0   33.80   35.40
   0  -7   0    9.20   23.40
   1  -7   0  440.26   45.30
  -1  -7   0  481.25   55.69
   1  -7   0  456.85   64.09
   1  -7   0  414.46   51.89
   1   7   0  470.25   44.20
  -1   7   0  509.55   58.29
  -1  -7   0  556.84   47.20
  -2  -7   0   68.09   28.20
   2  -7   0   32.60   31.50
   2  -7   0   -0.80   27.00
  -2   7   0   -3.20   39.80
   2  -7   0   47.70   39.90
  -2  -7   0   59.89   36.30
  -1   0  -1 1413.06   42.10
   1   0  -1 1390.76   39.70
  -1   0   1 1386.16   42.50
   1   0   1 1441.56   41.70
   1   0  -1 1429.26   40.30
   1   0  -1 1430.26   42.40
   1   0   1 1420.66   42.20
   1   0  -1 1477.45   43.30
   1   0   1 1415.46   41.40
   1   0  -1 1422.66   41.30
  -1   0   1 1406.96   40.20
  -1   0  -1 1385.26   34.90
   1   0   1 1398.76   40.50
  -1   0  -1 1441.56   42.20
   1   0  -1 1419.26   40.20
   1   0  -1 1427.66   41.30
   1   0   1 1438.46   42.20
   1   0   1 1417.66   35.30
  -1   0  -1 1390.26   40.50
   1   0   1 1424.26   40.30
  -1   0   1 1379.76   41.10
  -1   0   1 1390.16   42.70
   1   0   1 1417.06   41.40
  -1   0  -1 1381.46   41.10
  -1   0   1 1376.36   41.20
  -1   0  -1 1388.66   40.70
   2   0   1   17.90    9.70
   2   0   1   19.00   11.10
  -2   0  -1   16.50    9.20
   2   0  -1   13.00    9.60
   2   0  -1   12.40    8.70
   2   0   1   28.80    7.30
   2   0   1   24.10    9.20
   2   0  -1   19.90    9.90
   2   0  -1   31.00    7.90
  -2   0   1   22.00    8.70
   2   0   1   18.10    8.80
   2   0  -1   36.80   10.50
  -2   0  -1   22.20    8.90
  -2   0  -1   41.00   10.30
  -2   0   1   18.70    9.80
   2   0   1   20.20    9.20
  -2   0   1   32.10    9.50
   2   0   1   29.60    8.70
   2   0  -1   29.80   10.00
   2   0  -1   20.00    7.00
  -2   0   1   34.30   10.20
   2   0   1   36.30   10.20
  -2   0   1   15.00    9.80
  -2   0  -1   20.40    8.60
   2   0  -1   41.40   11.10
   3   0  -1   56.79   22.10
   3   0   1   43.70   18.20
   3   0  -1   47.40   12.50
   3   0   1   23.80   11.20
  -3   0  -1   19.90   14.70
   3   0   1   42.70   18.60
  -3   0  -1   42.20   15.30
  -3   0   1   23.00   15.80
  -3   0  -1   29.20   14.00
   3   0  -1    8.20   14.70
   3   0  -1   10.90   14.40
   3   0  -1   25.30    9.80
   3   0   1   42.60   13.20
   3   0  -1   23.60   18.10
   3   0  -1   36.20   17.10
   3   0   1   38.40   17.20
   3   0  -1   39.10   10.30
   3   0   1   27.00   11.80
   3   0   1   27.70    4.00
  -3   0   1   31.50   12.30
  -3   0   1   54.39   15.30
   3   0  -1   22.00   12.20
   3   0   1   30.80   16.60
  -3   0   1   36.90   14.80
   3   0   1   25.40    9.30
  -3   0   1   48.30   15.50
   4   0  -1  333.07   12.50
  -4   0   1  425.16   37.80
   4   0   1  338.77   15.80
   4   0   1  314.17   35.70
   4   0  -1  385.06   31.40
   4   0  -1  352.76   34.00
   4   0  -1  339.67   34.20
   4   0  -1  353.76   12.40
  -4   0  -1  348.87   39.60
   4   0   1  301.37   32.10
   4   0   1  317.37   36.90
   4   0   1  321.67   16.20
   4   0   1  350.56   27.60
   4   0  -1  329.37   29.10
  -4   0   1  331.97   38.60
   5   0  -1  119.59   30.00
  -5   0  -1  142.99   38.70
  -5   0   1  134.19   34.70
   5   0   1  121.09   31.10
   5   0   1  155.08   35.30
   0  -1  -1  358.76   13.80
   0   1  -1  374.06   15.20
   0  -1   1  375.96   11.70
   0  -1   1  378.96   13.80
   0  -1   1  375.56   14.10
   0  -1  -1  371.66   15.10
   0   1  -1  392.96   13.80
   0   1   1  361.86   15.00
   0   1   1  356.76   11.80
   0   1   1  372.76   14.40
   0  -1   1  367.56   13.40
   0  -1  -1  361.46   11.70
   0  -1  -1  358.96   13.00
   0   1  -1  368.96   14.20
   0   1  -1  383.36   13.20
   0   1   1  385.96   13.60
   0   1  -1  379.66   11.80
   0   1   1  346.87   13.10
   0   1   1  365.26   13.30
   0  -1   1  367.36   13.70
   0   1  -1  382.76   14.40
   0  -1   1  361.06   12.10
   0  -1  -1  374.26   14.50
   0  -1  -1  362.26   13.50
   0  -1   1  353.96   15.00
  -1  -1  -1 1036.80   28.30
   1  -1   1 1050.89   33.40
   1   1  -1 1063.49   35.20
   1  -1   1 1038.20   29.60
  -1  -1  -1  964.60   30.80
   1   1  -1 1018.00   28.40
  -1  -1  -1 1000.80   29.60
  -1  -1  -1 1023.90   27.30
  -1   1   1  995.70   28.70
   1  -1   1 1005.50   30.70
   1   1  -1 1021.10   28.20
   1   1  -1 1011.00   35.90
  -1   1   1 1040.60   31.80
   1   1  -1 1048.40   29.40
  -1   1   1 1009.90   29.30
   1   1  -1 1051.79   29.90
  -1   1   1  930.71   39.80
   1   1  -1 1058.89   33.70
  -1   1   1 1029.30   27.80
   1  -1   1 1016.40   29.90
  -1   1   1 1057.69   37.40
  -1  -1  -1 1020.00   27.60
   1  -1   1 1049.59   29.20
  -1  -1  -1 1040.10   28.20
  -1   1   1  996.70   31.70
   1  -1   1 1032.00   29.10
   1   1   1 1034.40   28.60
   1  -1  -1 1042.00   33.90
   1   1   1 1007.70   30.90
  -1  -1   1 1048.20   30.60
  -1  -1   1 1003.60   33.00
   1  -1  -1 1026.40   28.20
   1   1   1 1043.80   30.10
  -1   1  -1 1036.90   36.10
   1  -1  -1 1041.50   30.70
  -1  -1   1 1059.09   30.70
   1   1   1 1003.10   29.70
   1   1   1 1026.00   27.70
  -1  -1   1 1023.10   26.50
  -1  -1   1 1032.30   27.00
   1  -1  -1 1000.30   29.40
  -1   1  -1 1059.19   33.90
   1   1   1 1032.00   34.70
  -1   1  -1 1033.30   29.70
  -1   1  -1 1024.80   30.00
  -1  -1   1 1013.30   28.90
   1  -1  -1 1054.29   30.60
   1  -1  -1 1036.40   27.10
   1   1   1 1081.69   34.70
  -1   1  -1  990.40   25.90
  -2  -1  -1  215.68   11.70
   2   1  -1  199.08   19.90
  -2  -1  -1  187.18   17.50
   2   1  -1  207.78   22.40
  -2   1   1  196.28   18.00
   2   1  -1  209.48   21.20
  -2  -1  -1  189.28   15.70
  -2  -1  -1  190.38   18.80
   2   1  -1  205.48    9.90
  -2   1   1  209.38   17.00
   2  -1   1  216.18   19.70
   2   1  -1  204.78   17.90
   2  -1   1  180.48   11.30
  -2   1   1  208.18   18.60
   2  -1   1  191.38   19.10
   2  -1   1  209.58   17.00
   2  -1   1  195.38   13.80
  -2  -1  -1  208.28   11.70
   2  -1   1  191.58   10.40
   2  -1   1  201.88   17.40
   2  -1   1  184.08   19.10
  -2   1   1  173.78   21.30
   2  -1   1  200.68   17.20
  -2   1   1  192.28   16.10
  -2  -1  -1  219.68   19.10
   2   1  -1  209.88    9.30
   2  -1   1  200.28   10.30
   2   1  -1  200.68   15.40
   2  -1  -1  203.68   20.50
  -2   1  -1  227.88   16.80
  -2  -1   1  193.78   10.90
   2  -1  -1  195.68   10.70
   2   1   1  209.98   16.90
   2   1   1  195.78    9.90
   2   1   1  219.78   12.80
   2  -1  -1  194.48   13.50
   2   1   1  200.28    9.90
   2   1   1  205.88   22.50
   2   1   1  197.08   15.30
  -2  -1   1  187.08   19.20
   2  -1  -1  194.68   16.90
   2   1   1  175.78   18.00
  -2   1  -1  202.48   20.30
   2   1   1  225.08   21.10
   2  -1  -1  178.48   19.10
  -2  -1   1  194.58   15.70
   2   1   1  188.08   11.50
   2  -1  -1  217.08   16.00
   2  -1  -1  197.78   17.30
  -2   1  -1  184.58   17.20
  -2   1  -1  186.08   18.10
   2   1   1  191.68   10.80
   2  -1  -1  207.38   12.20
  -2  -1   1  204.58   10.60
  -2  -1   1  188.28   18.40
   2  -1  -1  190.98   10.30
   2  -1  -1  208.08   19.10
  -2  -1   1  198.08   14.40
   2   1   1  213.58   21.30
  -3   1   1   11.00   14.30
   3   1  -1   42.00    6.10
   3  -1   1   41.30    5.90
   3  -1   1   35.60    6.70
   3  -1   1   39.00   15.00
   3  -1   1   39.60    6.90
   3  -1   1   30.70   17.10
   3  -1   1   36.10   12.40
  -3  -1  -1   51.89   15.30
   3   1  -1   35.80    6.30
   3  -1   1   47.60   12.50
   3   1  -1   44.40   15.70
   3  -1   1   41.90    8.00
   3  -1   1   51.29   19.30
   3   1  -1   56.09   15.50
   3   1  -1   38.60   21.30
   3  -1   1   59.39   15.60
  -3   1   1   49.30   14.60
  -3  -1  -1   41.80   14.50
  -3   1   1   39.20   15.40
   3   1  -1   63.79   15.50
   3   1  -1   35.20   20.40
   3   1  -1   49.10   10.80
   3  -1  -1   33.70   15.60
   3   1   1   34.10   20.60
   3   1   1   64.69   15.40
  -3   1  -1   17.30   15.00
  -3  -1   1   45.80   14.00
  -3  -1   1   44.40   16.20
   3   1   1   38.00    7.50
   3   1   1   50.19    8.50
   3  -1  -1   38.10    5.80
   3  -1  -1   42.70    9.10
   3  -1  -1   22.50   12.50
   3   1   1   28.30   13.90
   3  -1  -1   42.40   11.60
   3   1   1   30.30    7.00
   3   1   1   29.00   15.50
   3   1   1   43.50    9.20
   3  -1  -1   48.70   17.70
   3  -1  -1   43.20   16.80
  -3   1  -1   39.30   15.10
  -3  -1   1   29.80   15.30
  -3   1  -1   32.10   15.60
   4  -1   1  119.89   21.50
  -4   1   1  140.19   26.80
   4   1  -1  124.89   21.20
   4  -1   1  101.99   17.00
   4   1  -1  100.19   18.70
   4  -1   1  117.79   21.20
   4   1  -1  154.18   25.60
  -4  -1  -1   75.09   23.20
   4  -1   1   73.29   17.80
  -4  -1  -1  105.89   25.60
  -4   1   1   94.29   26.60
   4   1  -1  120.49   24.90
   4   1  -1  108.69   21.50
   4  -1  -1   86.99   18.70
   4  -1  -1  100.09   14.30
  -4  -1   1  140.59   23.80
   4   1   1  121.59   26.30
   4  -1  -1  163.48   29.10
  -4   1  -1  114.89   25.70
  -4   1  -1   99.79   25.00
   4   1   1  137.29   18.10
   4   1   1   98.39   23.00
  -4  -1   1  159.28   31.40
   4  -1  -1  163.58   25.80
  -5   1   1   83.39   36.50
   5   1  -1   22.10   28.20
   5  -1   1   73.79   27.00
   5   1  -1   46.60   28.00
   5  -1   1   57.69   26.60
  -5  -1  -1  115.89   35.00
  -5  -1   1   54.89   34.40
   5   1   1   78.09   30.80
  -5  -1   1  -12.90   34.50
   5   1   1   40.80   29.80
  -5   1  -1   73.89   37.90
   5  -1  -1   62.29   33.70
  -5   1  -1   55.79   33.40
   5  -1  -1   25.10   26.10
   0   2   1    1.60    4.80
   0  -2  -1    7.10    4.10
   0   2   1   -3.70    4.00
   0  -2  -1    9.60    5.70
   0   2  -1    1.00    4.40
   0   2   1    2.80    4.00
   0  -2   1   -1.90    3.50
   0   2  -1    5.90    5.40
   0  -2   1    6.10    4.00
   0  -2  -1    3.80    6.00
   0  -2  -1    8.90    5.10
   0  -2   1    3.40    3.90
   0  -2   1   -9.30    5.20
   0  -2   1    8.60    4.40
   0  -2  -1    3.30    4.90
   0   2  -1    4.80    4.50
   0   2  -1    4.40    4.70
   0  -2   1    4.40    5.20
   0  -2   1    7.70    4.80
   0   2   1    6.40    4.70
   0   2   1   10.60    6.00
   0   2  -1    2.90    3.80
   0   2   1   -1.60    4.40
   0  -2  -1    3.90    5.10
   1  -2   1  171.08   12.80
   1   2  -1  148.79   12.80
   1  -2   1  165.28    9.90
  -1  -2  -1  153.08   11.00
   1  -2   1  164.68   15.20
   1  -2   1  173.68   14.40
  -1  -2  -1  172.48   14.20
   1   2  -1  164.08   15.60
  -1   2   1  144.69   16.50
   1  -2   1  175.38   15.60
   1  -2   1  152.98   13.30
  -1   2   1  161.48   11.30
  -1  -2  -1  145.49   13.80
   1   2  -1  174.78   12.10
  -1   2   1  168.28    8.70
   1   2  -1  156.58   13.20
  -1   2   1  162.28   12.60
  -1  -2  -1  163.18   15.00
  -1  -2  -1  152.28   14.70
  -1  -2  -1  161.58   10.40
   1  -2   1  172.18   14.90
   1  -2   1  151.88   12.70
  -1   2   1  161.18    9.70
   1   2   1  146.99   12.90
  -1  -2   1  167.48    8.10
   1   2   1  178.58   16.40
  -1   2  -1  162.38   10.20
   1   2   1  164.58   11.10
   1  -2  -1  184.08   15.80
   1   2   1  156.68   13.90
  -1   2  -1  139.89   15.10
   1   2   1  160.28   12.90
   1   2   1  154.48   11.90
  -1   2  -1  156.48   13.50
   1  -2  -1  147.49   11.50
  -1   2  -1  167.68   14.10
  -1  -2   1  152.98   13.90
  -1  -2   1  157.68   13.90
  -1  -2   1  140.49   13.50
  -1  -2   1  161.48   15.70
   1  -2  -1  164.18   14.70
   1  -2  -1  149.69    8.50
   1  -2  -1  146.29   12.90
   1  -2  -1  145.59   11.60
  -1  -2   1  181.18   11.70
   1  -2  -1  169.18   14.40
   1   2   1  157.68   14.30
  -1  -2   1  153.48   11.40
  -1   2  -1  185.48   10.30
   2  -2   1  304.97   24.40
  -2   2   1  339.97   23.30
  -2  -2  -1  322.77   19.50
   2   2  -1  355.86   24.60
   2   2  -1  347.47   32.00
  -2  -2  -1  354.46   25.80
  -2  -2  -1  333.27   11.40
   2  -2   1  323.37   19.50
  -2  -2  -1  334.37   19.00
  -2   2   1  336.37   21.90
   2  -2   1  321.47   16.90
  -2  -2  -1  341.87   11.40
   2  -2   1  337.77   25.30
   2   2  -1  373.56   19.10
  -2  -2  -1  333.07   17.10
   2   2  -1  348.17   17.30
  -2   2   1  359.86   16.70
   2  -2   1  350.96   19.70
   2  -2   1  316.47   19.40
   2   2  -1  385.56   21.70
  -2  -2  -1  355.46   11.70
   2   2  -1  334.87   27.70
   2   2  -1  331.77   17.00
  -2   2   1  311.77   23.50
  -2   2   1  346.17   28.30
  -2  -2  -1  332.27   20.60
   2  -2   1  319.97   20.60
   2  -2   1  365.46   18.40
  -2  -2  -1  308.57   25.90
  -2   2   1  353.56   15.70
   2   2   1  326.67   24.50
  -2   2  -1  348.17   18.30
   2  -2  -1  359.06   18.90
  -2  -2   1  303.47   20.70
   2  -2  -1  351.16   14.60
  -2   2  -1  328.67   23.30
   2  -2  -1  322.37   19.10
   2   2   1  323.77   21.60
   2   2   1  333.67   19.20
  -2   2  -1  304.47   27.10
   2  -2  -1  339.27   19.30
   2   2   1  348.17   20.50
   2  -2  -1  358.56   26.30
  -2  -2   1  334.57   19.40
  -2  -2   1  368.36   19.10
  -2  -2   1  341.97   25.70
   2   2   1  395.86   30.60
   2  -2  -1  297.07   26.20
   2  -2  -1  360.16   23.30
   2   2   1  348.47   28.10
  -2   2  -1  330.57   25.30
  -2  -2   1  337.97   24.80
  -2   2  -1  341.97   20.50
  -2  -2   1  387.36   20.10
   2   2   1  349.96   15.60
   2  -2  -1  363.36   19.70
   2   2   1  338.37   17.70
   3  -2   1  693.63   36.30
   3   2  -1  667.43   28.50
   3   2  -1  702.43   42.80
  -3  -2  -1  679.03   35.20
   3   2  -1  713.73   32.00
  -3   2   1  663.63   39.40
  -3   2   1  682.13   46.20
  -3  -2  -1  769.52   29.20
   3  -2   1  741.83   29.50
  -3   2   1  707.83   41.00
   3  -2   1  682.83   28.60
   3  -2   1  603.84   41.30
   3   2  -1  728.33   29.40
   3  -2   1  698.73   30.20
   3   2  -1  746.83   27.80
   3   2  -1  662.33   39.50
   3  -2   1  704.23   29.20
   3  -2   1  646.84   33.40
  -3   2   1  703.33   39.00
  -3  -2  -1  690.13   45.20
   3  -2   1  763.52   39.00
  -3  -2  -1  682.53   44.30
  -3   2  -1  702.43   46.90
  -3   2  -1  696.03   41.50
   3   2   1  730.23   36.70
   3  -2  -1  706.13   28.70
   3  -2  -1  707.63   27.80
   3   2   1  706.33   31.10
  -3   2  -1  769.52   34.40
   3  -2  -1  679.33   32.60
   3   2   1  684.93   26.70
  -3  -2   1  732.73   27.30
  -3  -2   1  657.23   33.50
   3  -2  -1  658.93   41.90
   3   2   1  697.93   42.30
  -3  -2   1  708.23   45.70
  -3   2  -1  712.63   39.90
   3  -2  -1  666.93   27.30
   3   2   1  671.03   28.10
  -3  -2   1  702.83   42.80
  -3   2  -1  715.43   37.40
   3  -2  -1  730.13   28.10
   3  -2  -1  697.13   37.10
   3  -2  -1  665.43   35.10
   4  -2   1   16.30    5.40
  -4   2   1   18.60   23.20
   4   2  -1   26.90   11.60
  -4  -2  -1   31.00   25.00
  -4  -2  -1   32.90   21.70
   4  -2   1   29.30   14.00
   4  -2   1   29.40   16.30
  -4   2   1   21.90   20.90
  -4   2   1    6.60   23.80
   4   2  -1   26.20   26.90
   4  -2   1   37.20   21.10
   4  -2   1   34.20    6.50
   4   2  -1   47.70   13.30
  -4  -2   1   43.50   28.20
  -4  -2   1    1.00   17.30
  -4   2  -1   41.20   24.50
   4  -2  -1   18.30    8.10
   4  -2  -1    0.90   20.20
   4   2   1   22.20   23.70
  -4   2  -1   48.00   23.70
   4   2   1   47.60   26.70
   4  -2  -1   29.20   14.40
   4   2   1   29.90    9.50
   5   2  -1  352.56   52.39
  -5  -2  -1  178.78   47.10
   5   2  -1  243.98   46.20
  -5  -2  -1  327.57   42.00
   5  -2   1  250.37   38.40
  -5   2   1  279.27   51.09
   5  -2   1  364.76   51.39
  -5   2  -1  203.08   46.10
  -5  -2   1  210.38   51.39
  -5  -2   1  173.88   39.40
   5   2   1  383.16   54.29
   5   2   1  243.28   41.40
   5  -2  -1  262.97   40.40
   0  -3  -1  388.26   26.00
   0   3  -1  437.46   22.90
   0  -3   1  442.86   23.80
   0   3  -1  389.56   22.90
   0  -3   1  402.66   18.30
   0  -3   1  367.86   25.20
   0   3  -1  405.36   23.40
   0  -3  -1  404.76   25.40
   0   3   1  389.76   21.40
   0   3   1  411.16   17.00
   0   3   1  399.06   21.20
   0   3  -1  416.66   16.90
   0   3   1  421.46   21.90
   0  -3   1  411.96   21.30
   0   3  -1  430.56   21.00
   0  -3   1  410.76   19.40
   0  -3   1  409.96   22.00
   0  -3   1  429.26   23.20
   0   3  -1  390.56   21.70
   0   3   1  379.26   23.30
   0  -3  -1  388.56   17.40
   0  -3  -1  415.36   22.60
   0  -3  -1  406.36   22.30
   0  -3  -1  391.96   21.00
   0  -3   1  407.86   26.50
   0  -3  -1  415.66   23.40
   1  -3   1   45.60    4.70
  -1   3   1   53.79   11.50
   1   3  -1   48.90   10.10
   1  -3   1   43.70    9.30
   1  -3   1   55.49   12.90
  -1   3   1   52.09   11.10
   1   3  -1   37.20    9.60
   1  -3   1   50.99   12.70
   1  -3   1   33.50    9.30
  -1  -3  -1   39.00    9.40
   1   3  -1   43.50   10.60
  -1  -3  -1   28.70   10.60
  -1  -3  -1   47.90   12.60
   1   3  -1   52.09   11.00
  -1  -3  -1   53.59   10.80
   1  -3   1   51.29   12.10
   1  -3   1   50.39   11.20
   1  -3   1   38.10   12.00
   1   3  -1   29.30   10.20
  -1  -3  -1   44.20    9.30
  -1  -3  -1   40.30   10.70
  -1  -3  -1   48.50    9.00
   1  -3  -1   35.40    9.30
   1  -3  -1   39.20   10.80
   1  -3  -1   46.80   11.70
   1  -3  -1   37.30    9.40
   1  -3  -1   38.70    9.80
   1   3   1   38.00   11.40
  -1  -3   1   47.20    9.10
   1  -3  -1   23.10    9.00
  -1  -3   1   31.50   10.30
   1  -3  -1   21.10   11.40
  -1  -3   1   33.00   11.80
  -1  -3   1   59.79   13.30
  -1  -3   1   53.89   11.50
   1   3   1   48.00   11.50
  -1   3  -1   30.00    9.40
  -1   3  -1   42.80   11.40
  -1  -3   1   44.30    9.10
   1  -3  -1   38.10   11.70
   1   3   1   49.40    9.00
  -1   3  -1   50.49   10.00
   1   3   1   49.40    9.80
  -1   3  -1   39.70    9.50
   1   3   1   37.20   11.00
   1   3   1   39.40   10.10
  -1  -3   1   46.30    9.30
  -2  -3  -1  122.79   20.40
   2  -3   1   72.39   14.80
   2  -3   1   72.09   11.40
   2   3  -1   97.39   15.70
  -2  -3  -1   66.99    9.70
  -2  -3  -1   79.99   10.90
   2   3  -1   96.99   24.20
   2  -3   1   82.89   15.00
  -2   3   1   84.69    9.90
  -2  -3  -1   75.39   11.70
  -2   3   1   86.49   11.40
   2   3  -1   74.99   11.70
  -2  -3  -1   77.69   10.70
  -2  -3  -1  113.69   19.30
   2  -3   1   83.09   12.00
  -2  -3  -1   76.69   11.30
   2   3  -1   94.59   15.80
  -2   3   1   60.29   18.60
   2   3  -1  102.39   17.90
   2  -3   1   98.39   17.60
   2   3  -1  103.19   17.60
   2  -3   1   48.70   16.30
  -2   3   1   84.29   13.20
  -2  -3  -1   88.59   18.60
   2  -3   1   72.49   12.20
   2   3  -1   75.49   18.30
   2  -3   1   63.09   13.10
   2   3   1   90.09   17.20
   2  -3  -1   79.49   13.60
  -2   3  -1   54.99   12.90
  -2  -3   1   71.29   11.20
   2  -3  -1   58.59   18.00
  -2  -3   1  100.79   20.00
  -2  -3   1   74.49   15.90
  -2  -3   1  103.69   14.60
  -2  -3   1   80.19   12.10
   2   3   1   79.99   21.60
  -2  -3   1   62.19   10.40
   2   3   1   91.39   11.50
  -2   3  -1   87.69   15.20
   2  -3  -1   65.99   12.70
   2  -3  -1   81.99    9.10
  -2  -3   1   69.29   14.70
   2   3   1   75.49   12.90
  -2   3  -1   79.09   17.40
  -2   3  -1   61.59   11.70
   2  -3  -1   60.69   16.20
   2  -3  -1   74.89   12.50
   2  -3  -1   84.59   14.20
   2   3   1   74.59   12.70
   2   3   1   86.39   21.50
  -2   3  -1   64.29    8.40
   2  -3  -1   63.09   17.70
  -2   3  -1   82.99   15.70
   2  -3  -1   61.69   13.60
   2  -3  -1   58.99    9.40
   2   3   1   68.59   15.50
   3   3  -1   20.00   11.00
   3   3  -1   18.90   15.40
  -3  -3  -1  -10.10   11.30
  -3   3   1   -6.60   18.60
  -3  -3  -1   24.50   21.00
  -3   3   1   -7.80   17.60
   3  -3   1   44.30   15.30
   3   3  -1   21.40   13.70
  -3  -3  -1   22.50   15.50
   3  -3   1    1.00   11.10
  -3  -3  -1   -5.30   15.90
   3   3  -1    5.30   18.60
   3  -3   1   22.70    8.60
   3  -3   1   20.20   15.40
  -3   3   1   12.10   12.80
   3  -3   1   23.10   11.90
   3   3  -1   28.60    9.70
  -3  -3  -1   34.60   11.20
   3  -3   1    3.40   13.90
   3  -3  -1   22.30   10.80
   3  -3  -1   18.50    7.10
   3  -3  -1   82.69   28.20
   3   3   1   30.20   13.60
  -3  -3   1   13.40   19.40
   3   3   1   42.30   20.30
   3  -3  -1   21.00   12.30
  -3  -3   1    0.30   10.60
   3  -3  -1   35.90   14.80
  -3  -3   1   13.00   13.90
   3  -3  -1   24.80   13.60
   3  -3  -1   -2.60   13.70
   3  -3  -1   15.50   11.70
  -3  -3   1   18.90   11.90
   3   3   1   20.50   15.20
  -3  -3   1    8.80   17.00
   3   3   1   13.00    8.20
  -3   3  -1   -6.90   14.00
  -3   3  -1   15.60   16.70
   3   3   1   33.80   14.50
  -3   3  -1   17.20   13.10
  -3   3  -1  -11.50   20.40
   4  -3   1  403.86   28.40
  -4  -3  -1  330.67   51.09
  -4  -3  -1  393.36   38.30
   4  -3   1  378.56   26.90
   4   3  -1  462.55   29.10
  -4   3   1  434.16   44.90
   4  -3   1  434.06   29.40
   4   3  -1  441.16   34.20
  -4   3   1  476.95   55.09
   4   3  -1  464.45   50.09
   4  -3   1  477.95   39.80
  -4   3  -1  472.25   43.80
   4   3   1  383.16   51.09
   4  -3  -1  400.76   28.00
   4  -3  -1  416.06   30.20
  -4   3  -1  413.26   48.70
  -4   3  -1  329.57   49.90
   4  -3  -1  442.36   37.90
  -4  -3   1  401.36   36.10
  -4  -3   1  349.47   53.39
   4  -3  -1  401.36   26.30
   0   4  -1  287.57   24.60
   0   4   1  342.87   23.90
   0  -4  -1  300.27   22.30
   0   4   1  348.87   24.70
   0  -4  -1  289.07   20.20
   0   4  -1  284.47   21.90
   0  -4   1  348.27   29.20
   0  -4  -1  301.27   24.70
   0  -4  -1  322.17   28.90
   0   4  -1  322.17   24.70
   0  -4   1  336.87   24.10
   0  -4  -1  309.57   25.10
   0   4   1  316.47   25.90
   0  -4   1  256.77   27.60
   0  -4   1  287.37   25.10
   0   4  -1  341.67   23.50
   0  -4  -1  280.37   29.00
   0  -4   1  300.87   20.30
   0  -4  -1  343.47   23.30
   0  -4   1  317.37   25.60
   0   4   1  331.57   16.80
   0   4   1  317.57   22.00
   0  -4   1  330.67   22.90
   0  -4   1  297.07   18.00
  -1   4   1  243.28   17.00
   1  -4   1  211.48   31.50
   1  -4   1  247.78   25.70
  -1  -4  -1  241.08   21.00
  -1  -4  -1  256.27   24.10
   1  -4   1  268.67   26.10
   1   4  -1  256.57   21.90
   1  -4   1  294.17   26.50
  -1   4   1  200.48   23.10
  -1  -4  -1  276.77   21.20
   1  -4   1  212.68   24.50
  -1  -4  -1  240.78   23.20
  -1  -4  -1  244.08   27.10
   1  -4   1  224.88   20.40
  -1  -4  -1  191.88   21.50
   1   4  -1  240.38   23.70
   1   4  -1  275.67   23.80
   1   4  -1  277.47   23.50
  -1   4   1  265.97   26.40
   1  -4   1  249.58   22.20
  -1  -4  -1  163.38   28.00
   1  -4  -1  170.18   36.80
  -1   4  -1  246.58   21.80
  -1  -4   1  224.18   21.00
   1   4   1  224.58   21.20
   1  -4  -1  196.48   24.80
  -1  -4   1  254.37   13.20
  -1   4  -1  214.18   23.70
  -1  -4   1  252.67   23.50
  -1  -4   1  293.17   21.00
   1   4   1  237.58   22.60
  -1  -4   1  232.78   22.00
   1  -4  -1  255.97   21.20
  -1  -4   1  226.38   28.90
  -1  -4   1  234.58   23.70
  -1  -4   1  204.78   25.90
  -1   4  -1  222.08   25.00
   1  -4  -1  260.27   24.60
   1   4   1  247.08   24.20
   1  -4  -1  206.78   24.30
   1   4   1  227.18   25.00
   1  -4  -1  212.28   20.90
   1  -4  -1  227.78   25.20
   2  -4   1  183.38   26.30
  -2   4   1  165.58   15.70
  -2  -4  -1  209.88   18.20
  -2  -4  -1  175.38   20.70
   2  -4   1  167.88   21.40
   2   4  -1  121.99   19.70
   2  -4   1  179.88   25.50
   2  -4   1  159.08   23.20
   2   4  -1  158.58   24.00
  -2   4   1  165.48   21.50
   2  -4   1  131.19   21.10
  -2   4   1  182.78   14.70
  -2   4   1  168.68   30.20
   2   4  -1  178.18   32.50
  -2  -4  -1  195.98   19.30
  -2  -4  -1  159.48   22.40
  -2  -4  -1  181.58   27.40
  -2  -4  -1  162.08   27.10
  -2  -4   1  188.08   21.00
  -2  -4   1  179.78   27.50
   2  -4  -1  177.88   25.20
   2   4   1  165.88   23.60
   2  -4  -1  162.88   21.90
  -2  -4   1  164.98   18.00
  -2  -4   1  267.47   31.80
  -2  -4   1  212.88   27.40
  -2   4  -1  162.48   13.00
   2  -4  -1  186.58   25.80
   2  -4  -1  153.58   25.50
  -2   4  -1  187.28   20.20
  -2  -4   1  158.78   18.80
  -2   4  -1  220.88   30.70
   2   4   1  163.18   19.80
  -2  -4   1  158.58   11.50
  -2   4  -1  158.78   18.00
   2  -4  -1  153.78   19.70
   3  -4   1  278.27   30.20
   3   4  -1  189.98   22.20
   3   4  -1  203.18   29.10
  -3   4   1  250.87   43.30
   3   4  -1  301.37   32.20
   3  -4   1  233.38   20.00
   3  -4   1  243.68   27.40
  -3   4   1  186.48   31.40
  -3  -4  -1  252.27   39.70
   3  -4   1  207.78   28.00
  -3  -4  -1  192.98   22.80
   3  -4   1  175.98   29.60
   3  -4  -1  197.58   31.90
   3   4   1  284.07   38.70
  -3  -4   1  174.78   29.40
   3  -4  -1  231.18   28.40
  -3   4  -1  180.18   27.90
  -3   4  -1  304.17   42.60
   3   4   1  232.98   21.30
  -3  -4   1  260.77   35.40
  -3  -4   1  234.68   19.10
   3  -4  -1  239.58   25.20
   3   4   1  195.68   31.50
  -3  -4   1  184.58   32.00
   3  -4  -1  209.18   30.20
   4  -4   1   21.50   23.20
   4  -4   1  116.09   23.80
   4  -4   1   70.29   34.70
  -4   4   1   75.69   33.70
  -4  -4  -1   61.59   38.80
   4   4  -1   52.29   36.00
   4   4  -1   33.80   25.90
   4  -4  -1   64.39   20.50
   4  -4  -1   73.69   21.30
  -4  -4   1  140.69   41.70
   4   4   1   96.49   36.50
   0   5   1   -3.30   12.70
   0  -5  -1   24.10   20.30
   0  -5  -1    4.20   12.50
   0   5  -1   -7.20   12.60
   0  -5   1   13.50   21.40
   0  -5   1   30.90   18.00
   0  -5  -1   17.00   10.40
   0  -5   1    4.10    9.50
   0  -5   1   23.30   11.60
   0  -5   1   10.80   12.30
   0   5   1    2.10   11.60
   0  -5  -1   36.20   14.10
   0   5  -1    3.40   14.70
   0  -5   1   -3.40   13.30
   0  -5  -1   15.80   20.80
   0   5  -1   12.50   13.70
   0   5   1   14.50   14.40
  -1   5   1  516.35   28.50
  -1  -5  -1  592.84   49.80
   1  -5   1  447.56   43.60
   1   5  -1  453.95   36.60
   1  -5   1  407.96   40.10
  -1  -5  -1  500.45   24.60
   1  -5   1  515.05   33.90
  -1   5   1  515.25   40.70
   1   5  -1  526.25   30.10
   1   5  -1  505.75   34.30
   1   5  -1  467.05   34.40
   1  -5   1  450.45   32.90
   1  -5   1  404.96   37.20
  -1  -5  -1  489.15   31.90
  -1  -5  -1  497.55   42.40
  -1  -5  -1  488.55   34.90
   1  -5  -1  542.15   34.10
  -1   5  -1  538.25   30.10
  -1  -5   1  453.25   31.60
   1   5   1  558.14   35.60
   1  -5  -1  458.25   42.40
  -1  -5   1  523.45   22.30
   1  -5  -1  437.86   39.30
  -1  -5   1  501.75   35.90
  -1  -5   1  562.64   43.90
  -1   5  -1  482.05   39.60
   1  -5  -1  553.94   42.50
   1   5   1  457.05   34.90
   1   5   1  520.45   29.70
  -1  -5   1  488.85   34.50
   1  -5  -1  484.85   31.50
   2  -5   1  114.49   24.10
  -2   5   1  107.89   19.20
  -2  -5  -1  108.69   13.10
  -2   5   1   96.09   16.30
   2  -5   1  110.89   35.20
  -2  -5  -1  112.29   18.40
   2   5  -1  110.09   19.40
   2   5  -1   92.19   22.30
   2  -5   1   95.99   18.90
   2  -5   1   81.69   25.60
  -2  -5  -1   86.99   19.10
  -2   5   1   67.09   43.00
  -2  -5  -1  140.79   29.30
  -2   5   1  117.49   16.80
  -2  -5   1   91.29   23.40
  -2  -5   1  111.29   27.20
   2  -5  -1  142.89   25.60
   2  -5  -1   82.69   23.40
   2   5   1   89.99   23.40
  -2   5  -1  101.29   13.10
  -2  -5   1  122.49   30.30
  -2   5  -1  112.39   18.20
  -2   5  -1  146.09   23.50
  -2  -5   1  121.49   18.20
  -2   5  -1  140.49   27.80
   3  -5   1   58.79   22.30
   3   5  -1   89.59   24.70
  -3   5   1   89.79   13.10
   3  -5   1   17.10   19.90
  -3   5   1   83.49   34.40
  -3  -5  -1   65.89   30.50
  -3   5   1   48.90   23.80
   3  -5   1   25.50   22.10
  -3   5  -1   31.10   31.30
   3  -5  -1   25.90   21.10
   3   5   1   68.89   32.10
   3  -5  -1   68.79   24.00
   3  -5  -1   62.79   23.50
  -3  -5   1   60.69   29.10
  -3  -5   1   77.49   30.00
   4  -5   1   69.19   28.20
   4  -5   1   95.89   27.60
   4   5  -1   84.09   53.59
   4  -5   1   18.20   29.80
  -4   5   1  113.89   44.80
   4  -5  -1  115.09   28.80
   4  -5  -1   85.99   29.90
   4  -5  -1   56.39   29.50
  -4   5  -1   52.29   44.70
   4   5   1    0.00   55.79
   0  -6   1  102.69   20.70
   0   6  -1   41.60   20.10
   0   6  -1   77.09   22.00
   0  -6  -1  111.19   23.20
   0  -6  -1   81.09   21.40
   0  -6  -1   97.79   28.00
   0  -6  -1  103.49   28.10
   0   6   1  105.19   23.00
   0  -6   1   62.29   19.90
   0  -6   1   82.79   28.70
   0  -6   1   77.79   23.00
   0  -6  -1   95.99   21.70
   1  -6   1   51.69   21.30
   1   6  -1   17.00   19.60
   1  -6   1   28.20   19.90
   1  -6   1    2.20   26.00
  -1  -6  -1   58.39   20.00
  -1  -6  -1   47.70   29.20
  -1  -6  -1    7.80   20.60
   1   6  -1   29.30   15.70
  -1   6   1    3.80   17.80
   1   6   1   22.60   15.20
   1   6   1    1.30   18.10
  -1  -6   1   25.30   27.60
  -1  -6   1   16.50   18.70
   1  -6  -1  -22.20   24.20
   1  -6  -1  -20.70   17.00
  -1  -6   1  -13.20   18.70
   1  -6  -1   13.30   17.00
   2   6  -1  133.89   21.60
   2  -6   1  127.29   27.20
  -2   6   1   94.39   34.90
  -2   6   1  199.88   24.60
  -2  -6  -1  211.48   36.40
   2  -6   1  189.18   30.10
  -2   6   1  213.98   34.70
   2  -6   1  206.48   35.60
   2   6  -1  126.09   28.70
   2  -6  -1  235.68   36.00
  -2  -6   1  147.09   34.50
   2  -6  -1  240.18   39.80
  -2   6  -1  197.38   40.70
  -2  -6   1  224.48   36.90
  -2   6  -1  150.48   22.20
   2  -6  -1  183.78   32.70
   2   6   1  104.49   27.90
  -3   6   1  168.28   48.70
   3  -6   1  181.38   33.70
   3  -6   1  160.18   30.90
  -3  -6  -1  109.19   37.10
   3  -6   1   93.39   32.60
   3  -6  -1  100.79   27.70
   3  -6  -1  150.88   33.00
   3  -6  -1  146.29   33.80
  -3   6  -1  138.79   47.70
  -3  -6   1  125.99   41.20
   3   6   1  142.29   44.10
   0  -7  -1  -36.20   21.90
   0  -7   1   58.69   26.80
   0  -7   1   16.10   23.40
   0   7   1  -26.10   27.00
   0  -7  -1   21.20   34.90
   0   7  -1   28.50   24.90
   0  -7   1  -12.80   32.00
   0  -7   1   19.30   23.40
   0  -7  -1    1.70   23.20
  -1  -7  -1   57.09   25.60
  -1   7   1   81.99   35.10
   1  -7   1   84.89   40.10
   1  -7   1   18.50   25.30
  -1  -7  -1   66.79   32.20
   1  -7   1  104.39   29.90
   1   7  -1   43.50   28.70
  -1  -7   1   48.90   26.00
   1  -7  -1   38.00   26.90
   1  -7  -1   45.10   25.20
  -1   7  -1   45.50   30.30
   1  -7  -1   79.19   36.90
  -1  -7   1   20.10   30.10
  -2  -7  -1   51.39   37.60
   2   7  -1  -31.00   28.60
   2  -7   1   98.09   32.90
  -2   7   1  -28.10   39.40
   2  -7   1   38.20   28.50
   2  -7   1    6.20   38.00
   2  -7  -1    9.70   31.50
  -2   7  -1   55.99   38.90
  -2  -7   1   84.49   37.20
  -2  -7   1   33.90   26.60
   2  -7  -1   44.00   40.60
   2  -7  -1   24.90   31.40
   1   0   2 1365.56   40.00
  -1   0   2 1334.67   38.70
  -1   0  -2 1359.76   41.20
  -1   0   2 1361.56   40.70
  -1   0  -2 1413.66   40.60
   1   0   2 1410.76   42.00
  -1   0   2 1310.47   41.90
  -1   0  -2 1358.56   40.00
   1   0   2 1384.76   40.10
   1   0   2 1421.06   42.50
  -1   0  -2 1360.86   40.50
   1   0   2 1433.56   39.60
   1   0  -2 1318.47   39.20
   1   0   2 1395.16   40.70
  -1   0   2 1376.96   42.50
  -1   0   2 1324.97   39.70
   1   0  -2 1378.16   39.70
   1   0  -2 1411.06   42.00
   1   0  -2 1395.96   39.30
   1   0  -2 1400.16   40.40
   1   0  -2 1349.86   42.30
  -1   0  -2 1336.87   35.40
   1   0  -2 1373.46   33.20
   1   0   2 1374.36   35.80
   1   0   2 1373.26   40.30
   1   0  -2 1321.97   39.70
   1   0   2 1356.56   34.10
   2   0   2 2617.64   78.49
  -2   0  -2 2541.15   77.39
  -2   0   2 2443.86   72.99
  -2   0   2 2462.05   78.39
   2   0   2 2468.05   61.69
   2   0  -2 2612.94   75.79
   2   0   2 2612.34   76.79
   2   0   2 2592.74   63.89
   2   0  -2 2626.94   79.59
  -2   0   2 2474.85   75.79
  -2   0  -2 2487.45   76.79
   2   0   2 2552.94   73.79
  -2   0  -2 2453.25   74.69
   2   0  -2 2626.04   73.99
   2   0   2 2664.33   77.09
   2   0   2 2553.14   75.49
  -2   0   2 2525.15   76.09
  -2   0   2 2510.85   78.29
   2   0   2 2516.95   74.29
   2   0  -2 2534.15   72.49
   2   0  -2 2520.65   78.89
   2   0  -2 2608.74   75.99
   2   0   2 2501.85   76.99
   2   0  -2 2741.43   79.19
   2   0  -2 2563.64   73.19
  -2   0  -2 2598.64   62.29
   2   0  -2 2526.25   72.69
   3   0  -2   27.00   16.90
  -3   0   2   53.09   16.20
   3   0   2   20.20   16.60
   3   0   2   42.90   17.00
   3   0  -2   42.40   19.50
   3   0  -2   17.60   15.30
   3   0   2   42.70    5.40
   3   0   2    9.40   12.80
   3   0   2   36.90   12.00
   3   0   2   22.60   12.80
  -3   0  -2   21.70   15.60
   3   0  -2   30.10   10.80
  -3   0  -2   29.70   13.80
   3   0  -2   34.10   12.70
   3   0  -2   49.80   16.70
   3   0   2   60.39   19.70
   3   0  -2   24.00   18.40
  -3   0   2   62.89   16.00
  -3   0  -2   64.59   16.40
   3   0   2   55.59   21.70
  -3   0   2   48.80   13.40
   3   0  -2   29.10   10.80
   3   0  -2   28.00   10.60
   3   0   2   33.50    9.60
  -3   0   2   40.70   14.20
  -3   0   2   23.30   14.30
   4   0  -2  265.57   31.30
   4   0   2  307.77   36.80
   4   0   2  289.97   25.30
  -4   0  -2  201.68   50.29
   4   0  -2  283.97   27.80
  -4   0   2  240.98   35.20
  -4   0   2  343.27   38.80
   4   0   2  250.97   16.30
   4   0   2  326.37   35.20
   4   0  -2  356.06   33.00
  -4   0  -2  275.17   35.70
   4   0   2  293.77   16.60
   4   0  -2  293.37   29.00
   5   0   2   73.79   30.60
  -5   0  -2   50.09   30.10
   5   0  -2   68.19   28.70
  -5   0  -2  104.69   36.50
   5   0  -2   38.30   24.90
   5   0   2   94.19   30.30
   0   1   2 2120.89   53.79
   0  -1   2 2091.19   54.19
   0  -1   2 2089.09   51.29
   0  -1   2 2049.09   54.69
   0   1   2 2125.19   53.79
   0  -1   2 2145.39   56.09
   0   1  -2 2025.60   55.79
   0   1  -2 2155.68   54.39
   0   1   2 2142.19   53.99
   0  -1  -2 2196.98   55.59
   0   1  -2 2107.69   51.49
   0  -1   2 2133.69   52.39
   0  -1  -2 2097.89   54.09
   0   1  -2 2093.69   54.99
   0  -1   2 2132.59   54.79
   0   1  -2 2134.69   53.39
   0  -1  -2 2080.29   55.79
   0  -1   2 2098.89   53.69
   0   1  -2 2103.89   54.79
   0   1   2 2035.60   55.79
   0  -1  -2 2097.59   53.69
   0  -1  -2 2087.49   53.29
   1  -1   2 8555.34  204.78
   1   1  -2 8565.14  201.68
  -1   1   2 8391.56  200.78
   1  -1   2 8523.75  199.98
   1   1  -2 8435.26  197.88
   1  -1   2 8474.25  200.18
   1   1  -2 8824.72  203.78
   1   1  -2 8525.85  207.88
  -1  -1  -2 8229.68  198.08
  -1  -1  -2 8384.96  197.68
  -1  -1  -2 7556.84  209.68
  -1   1   2 8271.57  199.28
  -1  -1  -2 8197.58  211.98
   1   1  -2 7602.24  203.88
  -1   1   2 8386.56  202.88
  -1   1   2 8792.12  200.58
  -1   1   2 8673.23  196.38
  -1  -1  -2 8332.97  200.08
   1   1  -2 8242.98  198.88
   1  -1   2 8706.53  204.48
  -1  -1  -2 8485.85  198.98
   1   1  -2 8335.97  200.98
   1  -1   2 8569.24  203.18
   1  -1   2 8508.55  201.48
   1  -1   2 8492.25  197.98
  -1  -1  -2 8705.53  198.68
  -1   1   2 7434.26  202.38
  -1   1   2 8533.65  209.58
   1   1  -2 8804.72  205.88
   1   1  -2 8631.04  198.38
   1   1   2 8675.13  201.08
   1   1   2 8643.83  205.98
  -1   1  -2 7710.83  209.48
  -1   1  -2 8672.23  198.68
  -1  -1   2 8816.22  198.68
  -1   1  -2 8522.25  207.58
   1  -1  -2 8274.07  199.28
  -1  -1   2 8208.38  208.38
  -1  -1   2 8436.56  198.18
  -1  -1   2 8395.26  201.68
   1  -1  -2 8896.61  202.08
   1  -1  -2 8827.12  198.38
   1  -1  -2 8635.44  199.18
   1   1   2 8430.36  201.68
   1  -1  -2 7695.93  214.18
  -1  -1   2 8009.40  206.88
  -1   1  -2 8529.45  200.68
  -1  -1   2 8597.34  197.88
  -1  -1   2 8663.13  200.78
  -1  -1   2 8354.96  204.38
   1  -1  -2 8469.65  204.18
   1  -1  -2 8206.58  199.48
   1   1   2 8090.89  207.08
  -1   1  -2 8415.56  205.38
  -1  -1   2 8416.96  198.18
   1   1   2 8851.31  198.08
  -1   1  -2 8477.35  198.98
   1   1   2 8400.66  198.78
   1   1   2 8615.24  205.08
   1   1   2 8332.67  198.78
   2   1  -2  233.48   10.20
  -2  -1  -2  217.88   12.70
   2  -1   2  219.68   19.10
   2   1  -2  252.57   20.20
   2  -1   2  219.68   13.00
   2  -1   2  251.47   18.60
   2   1  -2  235.38    9.80
   2   1  -2  248.58   16.40
  -2   1   2  207.98   16.20
  -2   1   2  227.08   16.90
  -2  -1  -2  212.68   20.20
   2  -1   2  236.68   20.90
   2  -1   2  241.78   10.70
   2  -1   2  275.67   19.40
   2  -1   2  239.18   20.00
  -2   1   2  222.68   20.80
  -2  -1  -2  236.78   20.20
  -2  -1  -2  256.97   17.70
   2   1  -2  245.58   22.30
   2  -1   2  263.47   20.70
   2  -1   2  213.58   14.80
   2   1  -2  201.28   24.40
   2  -1   2  242.68   11.80
  -2   1   2  228.18   18.20
   2   1  -2  232.78   15.10
  -2   1   2  199.38   19.10
  -2  -1  -2  233.68   16.20
   2   1  -2  219.18   21.10
   2  -1  -2  239.98   22.50
  -2   1  -2  194.28   20.40
   2   1   2  242.68   11.50
   2  -1  -2  237.48   17.90
   2  -1  -2  232.98   11.40
   2  -1  -2  240.08   18.80
  -2  -1   2  203.58   19.30
  -2  -1   2  235.58   11.10
   2   1   2  233.98   11.30
  -2  -1   2  222.78   15.50
  -2   1  -2  220.48   19.10
   2   1   2  232.68   11.20
   2   1   2  189.98   20.40
   2  -1  -2  231.28   20.70
   2   1   2  235.88   13.40
  -2  -1   2  221.78   20.70
   2   1   2  219.38   18.90
   2   1   2  225.08   22.70
   2   1   2  250.67   12.90
   2  -1  -2  221.38   15.50
   2  -1  -2  217.48   18.30
   2   1   2  205.28   19.90
   2   1   2  242.08   23.80
  -2   1  -2  241.98   17.20
   2  -1  -2  234.18   13.60
  -2   1  -2  228.28   17.10
   2   1   2  249.78   16.50
  -2   1  -2  216.98   19.00
  -2  -1   2  244.58   11.20
   2  -1  -2  232.28   11.40
   3  -1   2 1059.39   46.80
  -3   1   2 1063.99   46.70
  -3   1   2 1039.90   53.29
  -3  -1  -2 1044.80   46.80
   3  -1   2 1055.19   31.20
   3  -1   2 1025.70   41.60
   3   1  -2 1041.40   29.30
  -3  -1  -2 1018.40   50.69
  -3  -1  -2 1092.59   27.10
   3   1  -2 1074.69   48.10
   3   1  -2 1060.19   43.60
   3   1  -2 1049.79   51.79
   3  -1   2 1051.89   45.60
   3  -1   2 1072.69   32.80
   3  -1   2  965.10   48.20
  -3   1   2 1010.20   49.00
   3   1  -2 1036.20   49.10
   3   1  -2 1037.00   40.10
   3  -1   2 1007.40   30.90
   3  -1   2 1084.19   49.50
   3  -1   2 1046.30   36.80
  -3  -1  -2 1020.00   43.50
  -3  -1  -2 1062.69   27.10
   3   1  -2 1095.59   30.90
  -3   1  -2 1072.39   53.29
   3  -1  -2 1023.80   46.60
  -3  -1   2 1014.60   42.60
   3   1   2 1035.60   44.30
  -3   1  -2 1003.20   47.20
   3  -1  -2 1042.30   37.60
   3  -1  -2  998.30   46.60
   3   1   2 1087.39   32.50
   3   1   2 1035.70   32.60
   3   1   2  989.80   55.29
   3  -1  -2  983.20   47.10
   3  -1  -2 1046.00   39.70
  -3  -1   2 1026.50   50.59
   3   1   2 1066.89   32.60
   3   1   2 1023.20   43.00
   3   1   2  954.10   37.30
  -3  -1   2 1054.49   51.49
   3   1   2 1034.30   50.19
   3   1   2 1034.40   48.70
   3  -1  -2 1067.59   41.90
   3  -1  -2  974.30   48.10
   4   1  -2   13.10   17.30
   4   1  -2   -5.80   16.60
   4  -1   2   -1.50   18.00
   4  -1   2   18.00   17.10
   4   1  -2   21.10    9.90
   4  -1   2   16.90    9.50
  -4  -1  -2   10.60   20.30
   4  -1   2   -7.50   14.30
  -4  -1  -2   32.70   21.60
   4   1  -2   19.90   12.90
   4  -1   2   -6.40   14.00
   4   1  -2   28.90   22.10
  -4   1   2   10.40   21.10
  -4   1   2   -3.20   21.60
   4  -1  -2   44.10   14.60
   4   1   2   -2.20   19.50
  -4  -1   2   -1.40   19.80
   4  -1  -2    1.60   15.00
   4  -1  -2   11.80   15.30
  -4   1  -2   14.30   22.60
  -4   1  -2   16.00   22.40
   4  -1  -2   13.90   11.50
  -4  -1   2    2.80   19.60
   4   1   2   20.00    9.80
   4   1   2   10.00   19.00
   5   1  -2   85.99   35.50
  -5  -1  -2  172.78   39.80
   5   1  -2  152.58   31.50
   5  -1   2  100.69   29.10
   5  -1   2   71.09   27.40
  -5   1   2  126.69   36.20
   5  -1  -2  141.59   29.80
   5   1   2  100.59   34.80
   5   1   2   79.69   33.30
  -5   1  -2  115.09   40.20
  -5  -1   2  179.38   45.40
  -5   1  -2  142.99   38.40
   0  -2   2 1294.47   42.50
   0   2   2 1229.78   35.20
   0  -2  -2 1217.58   43.20
   0   2  -2 1288.67   40.80
   0  -2   2 1230.58   42.50
   0  -2   2 1267.57   40.50
   0   2   2 1281.57   41.10
   0  -2  -2 1235.48   40.60
   0  -2   2 1188.98   38.40
   0   2   2 1289.37   38.80
   0   2   2 1274.47   42.20
   0   2   2 1329.07   39.30
   0  -2  -2 1305.37   42.70
   0   2  -2 1255.47   42.50
   0  -2   2 1302.37   35.30
   0  -2   2 1161.28   43.40
   0   2  -2 1360.36   40.10
   0   2  -2 1187.68   40.60
   0   2  -2 1343.27   35.10
   0   2   2 1240.18   38.60
   0  -2  -2 1243.78   38.60
   0  -2  -2 1264.77   39.70
   0  -2   2 1260.47   39.40
   0   2  -2 1332.27   38.40
   0  -2   2 1308.27   36.70
   1   2  -2  671.03   31.20
   1  -2   2  633.94   26.10
   1   2  -2  685.73   24.70
  -1  -2  -2  650.13   23.70
   1   2  -2  672.03   25.00
   1   2  -2  632.54   28.00
   1  -2   2  692.73   22.60
  -1   2   2  640.44   22.80
  -1   2   2  614.24   24.60
  -1  -2  -2  666.93   22.30
   1  -2   2  670.63   28.20
  -1   2   2  641.34   19.00
   1  -2   2  669.83   26.40
  -1  -2  -2  634.94   27.90
   1  -2   2  685.33   27.90
  -1  -2  -2  628.74   27.90
   1  -2   2  694.93   28.30
  -1   2   2  652.43   30.90
  -1   2   2  671.13   27.90
   1   2  -2  637.14   25.80
  -1  -2  -2  652.13   27.50
   1   2  -2  627.94   26.00
   1  -2  -2  692.13   28.20
   1   2   2  665.33   22.90
   1   2   2  719.43   27.50
  -1   2  -2  667.73   28.40
  -1  -2   2  641.14   24.30
   1  -2  -2  624.24   29.70
   1   2   2  683.63   24.60
  -1   2  -2  617.64   26.80
  -1  -2   2  648.24   29.20
   1  -2  -2  617.54   26.40
   1  -2  -2  604.34   23.80
   1   2   2  635.14   27.80
  -1  -2   2  679.43   27.60
   1  -2  -2  659.23   30.00
   1   2   2  623.34   26.40
   1   2   2  653.63   27.00
  -1   2  -2  622.64   26.40
  -1   2  -2  682.33   23.20
  -1  -2   2  652.83   17.90
  -1   2  -2  635.44   29.30
  -1  -2   2  618.64   26.60
   1   2   2  680.13   28.80
  -1  -2   2  638.44   27.20
  -1   2  -2  667.73   27.90
  -1   2  -2  678.73   20.90
   2  -2   2  206.38   16.60
   2   2  -2  258.27   19.20
  -2  -2  -2  235.68   10.20
   2   2  -2  231.08   25.10
  -2  -2  -2  208.68   16.80
  -2  -2  -2  202.68   22.30
  -2  -2  -2  228.08   10.10
   2  -2   2  210.28   13.70
   2   2  -2  232.38   15.20
  -2  -2  -2  230.48   16.80
   2   2  -2  220.68   15.20
   2  -2   2  227.68   23.30
   2   2  -2  229.08   18.30
  -2  -2  -2  238.78   10.30
   2  -2   2  221.38   22.50
   2  -2   2  215.38   16.80
   2   2  -2  235.58   13.40
  -2  -2  -2  236.88   13.20
  -2   2   2  229.48   24.20
  -2   2   2  213.88   13.70
  -2   2   2  244.08   20.10
  -2   2   2  219.48   12.60
   2   2  -2  247.48   14.80
  -2  -2  -2  217.18   22.00
   2   2  -2  207.58   21.00
   2   2  -2  287.77   29.20
   2  -2   2  223.28   19.00
   2  -2   2  271.37   16.40
  -2   2   2  205.18   19.00
   2   2   2  266.07   18.20
   2   2   2  219.48   21.30
   2   2   2  255.97   16.20
   2  -2  -2  241.68   19.10
  -2   2  -2  243.38   22.10
  -2  -2   2  225.48   16.10
  -2   2  -2  249.18   23.50
   2  -2  -2  237.18   15.90
   2   2   2  176.48   24.60
   2  -2  -2  236.58   16.60
   2  -2  -2  204.28   16.30
  -2   2  -2  209.18   20.00
   2   2   2  234.48   22.30
   2  -2  -2  232.78   25.30
   2   2   2  256.87   15.50
   2  -2  -2  232.28   10.80
  -2  -2   2  192.08   16.10
  -2  -2   2  228.58   16.70
  -2  -2   2  226.98   16.70
  -2   2  -2  222.48   20.80
   2   2   2  240.28   29.00
  -2   2  -2  255.17   16.90
  -2  -2   2  223.98   22.60
   2  -2  -2  192.48   22.50
   2   2   2  222.78   16.70
   2   2   2  221.88   12.00
  -2  -2   2  233.78   22.20
   2  -2  -2  231.18   16.30
  -3   2   2  925.41   51.89
   3   2  -2  964.00   35.20
   3  -2   2  914.31   36.40
   3  -2   2  924.71   44.00
   3  -2   2  924.71   34.90
  -3   2   2  918.61   46.30
   3   2  -2  922.81   32.40
  -3   2   2  916.51   46.10
   3   2  -2  950.40   46.00
  -3  -2  -2  956.40   34.70
  -3  -2  -2  933.61   41.50
   3  -2   2  890.61   43.00
   3  -2   2  900.11   37.70
  -3  -2  -2  847.82   48.50
   3   2  -2  960.60   37.30
   3  -2   2  921.71   44.60
   3  -2   2  934.11   35.00
   3   2  -2  907.81   35.40
   3   2  -2  965.60   48.70
   3  -2   2  909.61   34.70
  -3   2   2  916.11   44.50
  -3   2  -2  864.21   47.60
  -3   2  -2  923.21   40.10
   3  -2  -2  910.01   41.90
   3  -2  -2  906.31   31.00
   3  -2  -2  951.30   47.90
   3  -2  -2  928.81   33.00
   3   2   2  896.01   33.40
   3   2   2  915.91   48.80
  -3  -2   2  901.41   38.10
  -3  -2   2  876.61   49.99
  -3   2  -2  913.71   52.79
   3  -2  -2  896.11   38.60
  -3   2  -2  929.11   42.10
  -3  -2   2  970.50   49.99
  -3  -2   2  892.11   38.50
   3  -2  -2  977.80   34.00
   3  -2  -2  890.81   32.40
   3  -2  -2  869.31   40.80
   3   2   2  860.21   39.40
   3   2   2  917.01   30.10
  -3  -2   2  918.91   31.70
  -3   2  -2  881.21   46.50
   3  -2  -2  911.71   32.40
   3   2   2  912.61   36.50
  -4  -2  -2   19.20   22.00
  -4   2   2  -10.40   22.20
   4  -2   2   17.90   17.10
  -4   2   2   -1.90   23.20
   4  -2   2   19.60    8.10
   4  -2   2   27.40    8.70
   4   2  -2    5.90   12.20
   4   2  -2   11.90   24.30
   4  -2   2   20.80   20.20
  -4  -2  -2   47.80   21.40
   4   2  -2   14.60   11.40
   4  -2   2   44.70   14.80
   4  -2  -2   24.50   16.80
   4   2   2   17.50   10.60
   4   2   2   19.10   25.40
  -4  -2   2    5.80   22.40
   4  -2  -2   36.50   22.50
   4  -2  -2    5.20    9.10
  -4  -2   2  -12.30   19.50
   4   2   2    0.00   22.00
  -4  -2   2   18.60   24.30
  -4   2  -2    3.90   21.80
  -4   2  -2   18.90   20.60
   4  -2  -2   21.90   12.40
   4  -2  -2    4.80   10.20
  -5   2   2  149.69   45.60
  -5  -2  -2  188.78   37.20
   5   2  -2  224.08   46.60
  -5  -2  -2  177.98   45.80
   5   2  -2  225.78   38.40
  -5   2  -2  175.28   43.70
   5   2   2  173.58   42.30
   5   2   2  208.88   39.80
  -5   2  -2  249.68   47.80
   5  -2  -2  154.88   35.00
   0   3   2 2051.59   55.29
   0  -3   2 1995.10   63.69
   0  -3  -2 1932.51   66.19
   0  -3  -2 2055.69   64.69
   0   3   2 1991.70   61.29
   0  -3   2 2088.49   63.29
   0  -3  -2 2070.89   62.39
   0   3  -2 2156.38   63.29
   0  -3  -2 2016.30   61.29
   0  -3   2 2101.19   56.39
   0   3   2 2018.80   61.89
   0  -3   2 1959.20   66.29
   0  -3   2 2041.40   67.19
   0  -3   2 2084.19   57.89
   0   3  -2 2126.29   60.09
   0   3  -2 2173.98   55.09
   0   3   2 2097.39   62.29
   0   3   2 1955.10   64.39
   0   3  -2 1998.30   64.09
   0  -3  -2 1923.41   61.89
   0   3  -2 1994.90   64.09
   0  -3   2 2055.99   62.39
   0   3   2 2068.69   67.49
   0  -3   2 1931.11   60.79
  -1   3   2  340.87   25.20
  -1   3   2  343.77   14.70
   1  -3   2  340.07   24.00
   1   3  -2  328.57   21.80
  -1  -3  -2  344.57   18.20
   1  -3   2  358.46   20.10
  -1  -3  -2  322.07   18.50
  -1  -3  -2  346.07   21.30
   1  -3   2  354.26   20.70
  -1  -3  -2  337.27   21.90
  -1  -3  -2  360.06   22.40
   1  -3   2  349.67   22.90
   1  -3   2  342.57   22.20
  -1   3   2  351.66   20.60
   1   3  -2  343.07   22.00
   1  -3   2  327.07   17.80
  -1  -3  -2  310.77   23.70
   1  -3   2  327.87   23.10
   1   3  -2  308.77   21.10
   1   3  -2  339.47   20.90
   1  -3   2  338.97   12.40
   1  -3   2  326.57   23.70
   1   3  -2  321.47   20.50
   1   3   2  349.37   22.40
   1  -3  -2  334.17   19.50
   1   3   2  325.17   21.70
   1  -3  -2  319.97   19.90
  -1  -3   2  355.26   10.80
   1  -3  -2  324.67   22.90
  -1  -3   2  347.47   23.70
   1   3   2  308.97   23.00
  -1  -3   2  351.36   25.00
   1  -3  -2  369.76   24.50
  -1  -3   2  334.47   21.70
  -1  -3   2  340.37   20.40
  -1   3  -2  362.26   18.10
  -1   3  -2  334.97   21.00
  -1   3  -2  324.37   21.70
   1  -3  -2  375.26   24.60
  -1   3  -2  344.37   21.60
   1  -3  -2  347.17   24.00
   1   3   2  387.86   26.10
   1  -3  -2  308.57   20.90
   1   3   2  323.07   19.10
  -1   3  -2  304.17   23.00
   1  -3  -2  344.57   22.70
  -1  -3   2  334.47   18.90
  -1  -3   2  335.97   20.10
   1   3   2  360.26   21.30
  -1  -3   2  326.57   23.80
  -2  -3  -2 1278.67   40.10
  -2  -3  -2 1280.07   40.50
  -2   3   2 1223.48   57.49
  -2   3   2 1220.18   45.50
   2  -3   2 1209.38   50.89
   2   3  -2 1235.48   43.30
   2  -3   2 1144.49   50.99
   2   3  -2 1239.08   43.30
   2   3  -2 1216.78   46.70
   2   3  -2 1190.08   47.00
  -2   3   2 1193.58   48.00
   2  -3   2 1269.77   38.40
   2   3  -2 1275.97   59.19
   2  -3   2 1169.78   38.10
   2  -3   2 1167.58   47.10
  -2   3   2 1235.98   35.50
   2  -3   2 1259.07   48.80
  -2  -3  -2 1246.28   40.70
   2   3  -2 1148.29   53.09
  -2   3   2 1203.08   38.90
  -2  -3  -2 1200.78   53.09
  -2  -3  -2 1236.68   38.90
  -2  -3  -2 1212.28   40.10
  -2  -3  -2 1230.48   52.79
   2  -3   2 1232.58   47.80
   2  -3   2 1251.37   46.30
  -2  -3  -2 1219.68   48.80
   2   3   2 1214.28   50.19
  -2   3  -2 1285.87   49.40
  -2  -3   2 1247.68   37.90
  -2  -3   2 1234.58   44.30
   2  -3  -2 1246.38   32.60
   2   3   2 1246.48   40.40
  -2  -3   2 1261.37   53.59
   2  -3  -2 1266.77   43.40
   2  -3  -2 1286.57   46.00
   2  -3  -2 1201.48   59.39
  -2  -3   2 1209.58   47.70
   2   3   2 1223.28   40.30
   2  -3  -2 1239.28   47.00
  -2  -3   2 1261.77   39.30
  -2   3  -2 1240.98   32.90
  -2   3  -2 1175.08   50.29
  -2   3  -2 1156.48   54.99
  -2   3  -2 1251.77   41.70
   2  -3  -2 1094.79   50.99
  -2  -3   2 1186.58   51.29
   2   3   2 1202.28   54.19
   2   3   2 1168.18   43.50
   2  -3  -2 1198.88   43.80
  -2  -3   2 1193.48   35.60
   2  -3  -2 1184.28   46.80
   2   3   2 1167.68   48.90
  -2   3  -2 1135.39   48.10
   2   3   2 1294.27   48.50
   3   3  -2  146.19   17.90
   3  -3   2  174.08   26.50
  -3   3   2  169.08   30.80
   3  -3   2  180.68   23.90
  -3   3   2  127.09   25.30
  -3   3   2  166.58   26.40
   3   3  -2  179.58   24.50
   3  -3   2  211.68   26.00
   3   3  -2  187.58   21.90
   3  -3   2  145.99   16.20
   3  -3   2  180.38   22.00
  -3  -3  -2  153.08   26.20
  -3  -3  -2  195.58   22.50
  -3  -3  -2  157.48   28.30
   3   3  -2  212.88   23.10
   3  -3   2  150.08   21.60
  -3  -3   2  165.08   18.70
   3  -3  -2  160.68   22.10
   3  -3  -2  198.18   22.00
  -3  -3   2  185.48   22.00
   3   3   2  171.48   22.40
   3  -3  -2  143.89   25.50
  -3  -3   2  155.58   23.40
   3  -3  -2  174.98   22.50
   3  -3  -2  182.08   19.50
  -3   3  -2  173.48   31.70
   3   3   2  157.98   14.50
   3   3   2  218.28   23.00
   3  -3  -2  175.98   21.90
   3   3   2  165.88   28.00
   3   3   2  175.38   22.40
   3  -3  -2  175.58   22.50
  -3   3  -2  208.68   22.90
   3  -3  -2  183.28   12.70
  -3   3  -2  192.28   28.40
  -3  -3   2  144.89   31.30
  -3   3  -2  161.48   23.30
  -3  -3   2  138.59   23.00
   4   3  -2  131.79   33.60
   4   3  -2   72.69   18.30
   4  -3   2  100.29   24.30
   4   3  -2   88.99   15.70
  -4   3   2   67.59   31.80
   4  -3   2   86.09   16.60
  -4  -3  -2   70.49   33.90
   4  -3   2   60.89   16.20
  -4  -3  -2   92.09   24.50
  -4   3   2   73.39   25.40
   4  -3  -2   66.09   13.40
   4  -3  -2   98.29   23.10
   4  -3  -2   83.39   16.00
   4   3   2   18.30   26.70
  -4   3  -2  104.39   34.40
  -4  -3   2   67.39   32.80
   4  -3  -2  100.29   16.60
  -4   3  -2   25.70   26.70
  -4  -3   2   27.30   29.50
  -4  -3   2   99.79   21.10
   0   4   2 1325.07   50.59
   0  -4   2 1347.87   50.99
   0  -4  -2 1437.16   52.69
   0   4  -2 1327.57   51.39
   0  -4  -2 1370.36   57.89
   0   4  -2 1306.47   52.89
   0  -4   2 1403.46   51.19
   0  -4  -2 1433.36   46.40
   0  -4  -2 1287.37   52.29
   0   4  -2 1359.66   51.79
   0  -4   2 1316.97   57.19
   0   4   2 1375.26   54.49
   0  -4   2 1314.47   52.99
   0  -4  -2 1378.86   49.90
   0  -4   2 1399.16   51.49
   0   4   2 1431.86   52.09
   0  -4  -2 1385.86   51.99
   0   4  -2 1354.46   54.49
   0  -4   2 1400.56   56.79
   0   4   2 1439.96   41.90
   0   4  -2 1402.86   48.40
   0  -4   2 1423.26   45.00
   0  -4  -2 1480.25   59.29
   0  -4   2 1371.36   45.30
   0   4   2 1345.47   50.89
   1  -4   2  249.08   20.50
   1  -4   2  228.78   25.00
   1  -4   2  251.57   21.10
   1  -4   2  237.18   25.20
  -1  -4  -2  220.98   19.10
  -1  -4  -2  262.67   23.60
  -1  -4  -2  220.38   23.80
  -1   4   2  210.08   25.60
   1  -4   2  215.38   22.50
   1   4  -2  249.68   22.70
   1   4  -2  266.87   23.50
  -1  -4  -2  217.58   27.00
  -1   4   2  232.98   16.20
  -1  -4  -2  248.28   20.00
   1  -4   2  273.37   28.20
  -1  -4  -2  238.38   31.40
   1   4  -2  224.98   20.80
   1  -4   2  228.98   10.60
  -1   4   2  269.87   23.10
   1  -4   2  224.58   23.90
   1  -4  -2  220.08   24.90
   1   4   2  292.57   29.90
  -1  -4   2  255.67   20.00
  -1  -4   2  201.58   23.40
  -1   4  -2  255.97   20.10
   1   4   2  247.58   23.60
   1   4   2  255.07   25.00
  -1   4  -2  242.78   22.20
  -1  -4   2  245.58   11.60
  -1  -4   2  217.58   22.30
   1   4   2  255.77   22.20
  -1  -4   2  195.58   26.20
   1  -4  -2  251.37   20.90
   1  -4  -2  245.78   25.30
   1  -4  -2  274.07   27.00
   1  -4  -2  218.58   26.40
  -1   4  -2  196.08   23.20
  -1  -4   2  239.28   22.90
  -1   4  -2  181.48   25.00
   1   4   2  225.78   17.60
  -1  -4   2  232.68   27.20
  -1  -4   2  212.88   21.00
   1  -4  -2  267.27   22.00
  -2  -4  -2  622.14   26.10
  -2   4   2  579.24   43.00
   2  -4   2  601.54   34.10
   2   4  -2  620.94   47.40
  -2  -4  -2  618.74   29.40
  -2  -4  -2  604.34   32.60
  -2   4   2  609.34   27.60
   2  -4   2  644.84   40.10
   2   4  -2  632.24   36.30
   2   4  -2  640.24   32.90
  -2  -4  -2  614.14   40.80
   2  -4   2  608.04   38.50
   2  -4   2  603.74   34.70
  -2   4   2  636.94   24.00
   2  -4   2  667.83   39.60
  -2   4   2  609.94   33.00
  -2  -4  -2  595.74   38.20
  -2   4   2  484.35   37.00
  -2  -4  -2  615.84   29.20
  -2  -4  -2  641.24   29.10
  -2  -4   2  586.04   33.00
  -2   4  -2  595.44   23.10
  -2  -4   2  616.24   39.20
  -2   4  -2  619.64   29.10
  -2   4  -2  613.14   29.50
  -2  -4   2  593.54   42.70
  -2  -4   2  577.24   39.80
   2   4   2  626.14   30.80
   2  -4  -2  608.14   38.30
  -2  -4   2  572.94   28.10
   2  -4  -2  584.64   32.70
  -2  -4   2  623.84   30.40
   2  -4  -2  604.54   37.90
   2   4   2  591.24   36.20
   2  -4  -2  600.74   35.70
  -2   4  -2  579.04   44.70
   2  -4  -2  561.14   32.50
   3   4  -2   86.29   15.90
   3  -4   2  134.59   19.10
   3  -4   2  103.59   20.20
  -3  -4  -2   87.29   26.30
  -3  -4  -2   88.69   16.40
   3   4  -2  128.89   21.90
   3  -4   2   75.39   21.30
   3  -4   2   80.79   18.60
  -3   4   2   89.09   32.90
   3  -4   2   69.69   20.10
   3   4  -2   96.09   20.00
  -3   4   2  101.79   21.80
   3   4   2   97.19   25.60
   3  -4  -2  114.29   21.90
   3   4   2   75.99   20.00
  -3  -4   2   87.69   19.80
   3  -4  -2   89.99   18.50
   3   4   2   95.99   14.50
   3  -4  -2   82.89   18.20
  -3  -4   2  142.89   28.00
  -3   4  -2  105.39   17.70
  -3  -4   2  113.49   26.20
  -3   4  -2   59.69   23.60
   3  -4  -2  103.69   22.00
  -4   4   2  131.49   39.00
   4  -4   2   87.09   28.50
  -4  -4  -2   17.50   33.80
   4  -4   2   89.89   22.50
   4   4  -2   68.09   30.30
   4   4  -2   77.09   38.50
  -4  -4   2   84.69   36.50
   4  -4  -2   47.60   22.80
   4  -4  -2   60.89   21.60
  -4   4  -2   82.49   38.30
   4  -4  -2  103.29   21.10
   4   4   2   53.49   33.60
   0  -5  -2  308.07   27.00
   0  -5   2  362.06   40.60
   0  -5  -2  392.96   37.60
   0  -5  -2  411.46   27.30
   0  -5   2  347.87   27.10
   0   5   2  369.66   29.90
   0  -5  -2  334.37   28.90
   0  -5  -2  382.56   26.60
   0  -5  -2  352.76   40.40
   0   5  -2  367.36   30.60
   0  -5   2  290.97   36.40
   0   5  -2  346.17   31.50
   0   5   2  339.77   28.40
   0   5  -2  357.46   32.70
   0  -5   2  365.76   25.00
   0   5   2  343.37   23.70
   0  -5   2  339.57   30.00
   0  -5   2  360.86   25.90
  -1   5   2 2108.79   82.69
  -1  -5  -2 2106.29   76.39
  -1   5   2 2201.38   63.99
  -1  -5  -2 2093.59   71.29
   1  -5   2 2166.28   83.79
   1   5  -2 2077.09   79.49
   1  -5   2 1965.60   71.69
   1   5  -2 2182.28   76.59
   1  -5   2 2180.08   85.19
   1  -5   2 2040.30   73.49
  -1  -5  -2 2097.49   83.39
  -1  -5  -2 2023.80   71.59
   1   5  -2 2098.79   69.79
   1  -5   2 2109.89   75.49
   1   5   2 2113.79   68.09
  -1  -5   2 2011.50   70.89
   1  -5  -2 1926.61   74.79
  -1   5  -2 2154.68   67.99
   1  -5  -2 2195.88   75.69
  -1  -5   2 2167.68   54.59
   1   5   2 2125.39   80.59
  -1  -5   2 2096.19   82.59
   1  -5  -2 2174.78   74.29
  -1  -5   2 2171.38   75.59
  -1   5  -2 2077.19   82.79
   1  -5  -2 2150.68   83.49
   1  -5  -2 2135.19   83.69
  -1  -5   2 2036.20   75.59
   1   5   2 2030.80   71.49
  -1   5  -2 2070.59   77.49
   2  -5   2   58.99   24.10
   2   5  -2   65.29   20.60
  -2  -5  -2   57.79   16.20
  -2  -5  -2   58.59   10.70
   2   5  -2   43.50   15.70
  -2   5   2   50.19   18.10
  -2  -5  -2   56.19   21.30
   2  -5   2   44.80   17.50
  -2   5   2   39.20   10.90
  -2   5   2   18.90   13.80
   2  -5   2   17.60   18.70
  -2  -5  -2   46.80   16.90
   2  -5   2   65.69   21.80
   2  -5  -2   70.59   21.90
   2  -5  -2   88.79   26.30
  -2  -5   2   63.39   24.50
  -2  -5   2   44.10   22.50
  -2   5  -2   59.19   10.50
  -2  -5   2   74.19   15.60
   2   5   2   40.10   18.10
  -2   5  -2   66.69   24.80
  -2   5  -2   45.10   13.70
  -2   5  -2   71.59   17.30
   2  -5  -2   42.10   18.60
  -2  -5   2   29.00   21.20
   3  -5   2  593.34   44.90
   3  -5   2  642.44   40.70
  -3   5   2  568.94   45.30
   3  -5   2  638.64   49.30
  -3  -5  -2  555.74   57.49
   3   5  -2  599.74   38.20
  -3   5   2  601.94   27.00
  -3   5   2  422.46   62.79
   3   5  -2  521.95   47.50
  -3  -5   2  554.74   56.69
   3   5   2  774.42   62.49
   3  -5  -2  551.04   46.80
   3  -5  -2  573.24   42.70
   3  -5  -2  641.14   47.80
  -3   5  -2  553.04   58.49
  -3  -5   2  471.05   52.79
   4  -5   2  -28.40   29.60
   4   5  -2  -19.50   25.80
  -4  -5  -2   -6.80   53.19
  -4   5   2   24.30   38.40
   4  -5   2   35.20   28.60
   4   5  -2  -69.79   55.89
   4  -5  -2  -15.30   25.20
   4  -5  -2   32.90   27.80
  -4   5  -2    8.50   38.60
   4  -5  -2   -0.60   24.10
   0  -6   2  691.83   43.70
   0  -6   2  723.83   47.00
   0  -6   2  664.33   55.99
   0   6  -2  625.24   47.70
   0   6   2  677.63   46.10
   0  -6  -2  707.13   44.10
   0  -6  -2  713.53   40.90
   0   6  -2  725.93   48.10
   0  -6  -2  756.92   46.80
   0  -6  -2  757.02   58.39
   1   6  -2   61.69   22.10
  -1  -6  -2   74.79   30.00
   1   6  -2   54.99   17.80
  -1   6   2   54.49   25.00
  -1  -6  -2   74.89   22.20
   1  -6   2   93.39   27.00
  -1  -6  -2   53.79   24.20
   1  -6   2   81.59   23.50
   1  -6   2   85.19   20.90
   1  -6  -2   31.00   24.90
  -1   6  -2   60.89   27.10
  -1  -6   2   89.89   25.20
   1   6   2   65.09   17.50
  -1  -6   2   98.39   21.90
  -1  -6   2   40.90   28.50
  -1  -6   2   10.50   17.60
   1  -6  -2   33.40   20.80
  -2  -6  -2  569.94   49.50
  -2   6   2  575.14   58.89
  -2   6   2  599.84   44.10
  -2  -6  -2  626.84   55.59
  -2   6   2  565.54   35.10
   2  -6   2  623.24   57.69
   2  -6   2  534.85   46.40
   2  -6   2  538.65   45.10
   2   6  -2  625.64   49.60
  -2   6  -2  757.52   60.79
   2  -6  -2  591.64   44.50
  -2  -6   2  493.75   52.59
  -2  -6   2  621.44   51.19
   2  -6  -2  678.53   59.29
   2  -6  -2  617.14   45.80
  -2  -6   2  548.35   42.40
  -2   6  -2  557.54   31.90
   3  -6   2   45.80   33.90
   3   6  -2   24.10   28.20
   3  -6   2   17.40   25.50
  -3   6   2   68.39   40.10
  -3  -6  -2   79.69   35.70
   3   6   2   74.99   42.50
  -3  -6   2   94.19   39.50
   3  -6  -2   66.29   29.70
   3  -6  -2   72.19   26.80
   3  -6  -2   84.89   27.00
  -3   6  -2   73.39   46.10
   0  -7   2  149.49   29.80
   0  -7   2  144.49   32.10
   0   7   2  152.98   32.40
   0   7  -2  121.89   30.80
   0  -7  -2  143.19   40.50
   0  -7  -2   95.49   26.80
   0  -7  -2  172.48   32.90
   0  -7   2  116.39   40.30
   0  -7   2  110.79   26.00
  -1  -7  -2  217.38   32.20
  -1  -7  -2  107.09   38.40
   1  -7   2  259.97   49.20
   1   7  -2  215.48   38.70
   1   7  -2  207.48   36.60
  -1   7   2  297.47   54.09
   1  -7   2  252.67   41.10
   1  -7   2  171.98   35.60
   1  -7  -2  194.28   33.90
   1  -7  -2  311.27   40.60
  -1  -7   2  189.98   33.50
  -1   7  -2  189.38   39.10
  -1  -7   2  153.08   37.30
   2   7  -2  223.88   41.00
  -2   7   2  363.96   48.30
  -2   7   2  278.17   52.69
  -2  -7  -2  453.35   64.89
  -2  -7  -2  309.57   44.10
   2  -7   2  245.88   52.29
   2  -7   2  340.17   48.40
   2  -7   2  414.96   49.70
   2  -7  -2  417.76   52.29
   2  -7  -2  386.96   49.30
   2   7   2  261.07   47.40
   2  -7  -2  317.87   55.29
  -2  -7   2  318.67   44.20
  -2  -7   2  402.86   60.29
  -2   7  -2  263.87   54.09
   0   0   3    1.00    1.70
   0   0  -3    0.60    1.60
   0   0  -3    1.10    2.40
   0   0  -3    0.80    1.80
   0   0   3    0.70    2.20
   0   0   3   -0.20    1.60
   0   0  -3    0.30    1.80
   0   0   3    0.60    1.70
   0   0   3    2.00    1.80
   0   0  -3    1.80    1.90
   0   0   3   -0.20    1.30
   0   0   3   -0.50    1.80
   0   0  -3    0.60    1.60
   0   0  -3    0.80    1.30
   1   0  -3 2492.75   68.29
  -1   0  -3 2429.96   61.59
  -1   0   3 2451.65   58.79
   1   0   3 2466.45   68.09
  -1   0   3 2403.66   67.59
  -1   0  -3 2333.87   64.29
   1   0  -3 2423.36   63.69
  -1   0  -3 2479.25   65.89
   1   0   3 2362.26   66.49
   1   0   3 2451.45   64.09
  -1   0   3 2495.75   66.09
   1   0   3 2444.06   65.59
   1   0  -3 2516.95   67.29
  -1   0   3 2403.86   65.29
   1   0   3 2485.75   63.99
  -1   0  -3 2420.16   58.29
   1   0   3 2385.16   61.59
   1   0   3 2469.65   60.19
   1   0  -3 2415.86   63.59
   1   0  -3 2497.15   65.09
   1   0  -3 2420.56   65.39
  -1   0   3 2386.06   63.99
  -1   0  -3 2445.26   64.89
   1   0  -3 2420.86   64.99
   1   0  -3 2431.16   59.09
  -1   0   3 2428.86   67.79
   1   0   3 2398.86   59.69
   2   0   3  514.45   26.30
   2   0  -3  532.75   26.80
  -2   0  -3  512.95   27.60
  -2   0  -3  514.65   17.50
  -2   0  -3  491.75   26.20
   2   0   3  519.25   18.40
   2   0  -3  532.15   25.80
  -2   0   3  480.95   27.90
   2   0   3  553.74   28.30
  -2   0   3  506.15   28.70
   2   0   3  494.95   27.60
   2   0   3  515.95   26.00
   2   0  -3  512.35   29.10
  -2   0   3  504.15   26.70
  -2   0   3  517.05   25.00
   2   0   3  529.85   27.60
   2   0  -3  516.25   23.60
   2   0   3  541.45   26.00
   2   0   3  530.65   29.90
   2   0  -3  523.35   25.10
   2   0  -3  510.95   24.80
   2   0   3  512.75   16.60
   2   0  -3  543.25   28.90
   2   0  -3  498.45   24.00
   2   0  -3  507.45   26.80
  -2   0   3  488.65   26.60
  -2   0  -3  499.05   26.70
   3   0  -3   67.29   20.80
   3   0   3   39.70   17.80
   3   0  -3   51.29   11.90
   3   0   3   44.50   15.10
   3   0  -3   55.29   11.50
   3   0   3   49.10   14.60
   3   0   3   28.30   14.00
   3   0   3   73.59   23.30
   3   0  -3   67.29   13.90
  -3   0   3   77.29   16.90
   3   0   3   62.09    8.50
  -3   0  -3   66.39   16.70
  -3   0  -3   60.29   16.90
  -3   0   3   41.50   12.80
  -3   0   3   41.10   16.30
   3   0   3   45.10    7.70
  -3   0   3   44.10   15.40
   3   0  -3   56.99   14.10
   3   0   3   58.59    7.90
  -3   0   3   44.80   16.30
   3   0   3   19.50   17.50
  -3   0  -3   72.69   16.40
   3   0  -3   15.50   18.10
   3   0  -3    9.20   16.70
   3   0  -3   57.59   18.50
   3   0   3   35.60   18.40
   3   0  -3   28.10   17.40
   3   0   3   45.90   10.40
   4   0  -3  755.42   44.10
   4   0   3  715.73   48.90
   4   0   3  735.63   28.30
  -4   0   3  697.53   59.69
   4   0   3  789.72   28.80
   4   0  -3  783.92   42.60
  -4   0   3  803.22   48.10
  -4   0   3  817.92   52.59
   4   0  -3  776.72   40.70
  -4   0  -3  753.32   49.80
  -4   0  -3  801.92   50.99
   4   0   3  741.43   36.90
   4   0   3  767.12   38.30
   4   0   3  790.42   47.50
   4   0  -3  768.42   42.20
   5   0   3  -32.10   29.10
  -5   0  -3   37.60   32.20
   5   0   3  -55.19   28.50
   5   0  -3   55.99   28.80
  -5   0  -3   41.50   29.90
   0   1   3   22.60    4.80
   0   1   3   21.30    4.40
   0  -1  -3   20.90    3.80
   0   1   3   21.30    4.80
   0  -1  -3   22.50    4.20
   0  -1   3   26.40    5.20
   0   1  -3   23.00    5.00
   0   1  -3   19.90    3.60
   0   1  -3   16.40    4.50
   0  -1   3   17.90    5.50
   0   1  -3   18.90    5.30
   0  -1   3   23.40    3.40
   0   1   3   17.90    5.80
   0   1  -3   22.10    4.60
   0  -1   3   15.50    4.30
   0  -1  -3   22.50    5.60
   0  -1   3   25.30    4.90
   0  -1  -3   16.90    4.40
   0   1  -3   18.30    5.80
   0   1   3   17.40    4.70
   0  -1   3   26.70    5.30
   0   1  -3   18.50    4.80
   1  -1   3 1278.87   49.00
   1  -1   3 1541.35   41.60
   1   1  -3 1507.65   48.60
   1  -1   3 1467.65   42.40
  -1   1   3 1473.45   40.30
  -1   1   3 1424.56   41.40
   1   1  -3 1501.55   39.30
  -1  -1  -3 1451.55   45.80
   1  -1   3 1489.85   37.80
   1  -1   3 1518.95   41.40
  -1  -1  -3 1421.26   39.20
  -1  -1  -3 1451.05   40.90
   1   1  -3 1458.95   39.70
  -1  -1  -3 1522.35   39.20
  -1   1   3 1474.65   40.20
   1   1  -3 1457.75   38.60
   1  -1   3 1450.75   44.20
  -1  -1  -3 1469.85   36.10
   1   1  -3 1491.05   46.30
   1  -1   3 1524.85   45.70
   1  -1   3 1484.25   42.80
   1   1  -3 1487.95   41.70
  -1  -1  -3 1481.15   40.20
   1   1  -3 1494.15   41.30
   1   1  -3 1531.65   43.50
  -1   1   3 1497.85   41.20
   1   1  -3 1527.15   42.80
  -1  -1   3 1511.35   41.50
  -1   1  -3 1223.98   57.09
  -1  -1   3 1455.55   37.30
  -1  -1   3 1455.75   47.20
   1   1   3 1477.25   38.10
   1  -1  -3 1458.25   41.00
   1   1   3 1456.55   42.70
   1   1   3 1467.35   36.00
   1  -1  -3 1388.16   44.40
   1  -1  -3 1503.95   39.70
   1  -1  -3 1511.55   48.50
  -1   1  -3 1520.85   40.30
   1   1   3 1546.15   40.20
   1   1   3 1440.66   45.90
   1  -1  -3 1474.95   38.90
  -1  -1   3 1459.25   38.30
  -1  -1   3 1470.45   37.70
  -1  -1   3 1470.05   45.90
   1  -1  -3 1471.75   41.00
   1  -1  -3 1452.15   39.10
   1   1   3 1498.95   45.50
  -1  -1   3 1524.15   43.40
  -1   1  -3 1452.55   38.30
   1  -1  -3 1518.75   35.40
  -1   1  -3 1443.96   44.40
   1  -1  -3 1519.35   42.80
   1   1   3 1509.25   46.20
  -1   1  -3 1524.15   42.10
  -1  -1   3 1507.75   37.40
  -1  -1   3 1336.97   47.80
  -1   1  -3 1398.06   46.10
   1  -1  -3 1467.35   40.70
  -2  -1  -3   17.30   10.40
   2   1  -3   10.90    7.00
   2   1  -3   13.10   11.40
   2  -1   3   11.50    7.60
   2   1  -3   12.20    3.60
   2  -1   3   17.10    8.50
   2  -1   3   17.20   11.60
   2  -1   3   19.00    9.60
   2  -1   3   18.40    5.10
   2  -1   3   13.40    3.70
   2  -1   3    7.30    5.20
   2   1  -3   11.80   12.30
   2   1  -3   23.00    6.80
   2  -1   3   20.10    9.10
  -2   1   3   11.60    7.90
  -2  -1  -3   18.60    6.10
   2   1  -3   17.60   10.40
   2  -1   3   11.60   11.20
   2  -1   3    7.20    6.90
   2   1  -3    9.10    8.80
  -2  -1  -3   16.90    7.20
   2  -1   3   18.80    6.70
   2   1  -3   20.50    3.60
  -2  -1  -3    4.00    7.80
  -2   1   3   10.80    7.70
  -2   1   3   15.50    9.90
  -2   1   3   19.50   10.50
  -2   1   3    4.80    7.70
   2  -1  -3   11.90    5.80
   2   1   3   24.40   12.20
   2  -1  -3    9.10    4.80
   2   1   3   13.20    5.20
  -2   1  -3    8.50    9.40
  -2  -1   3    6.90    4.60
   2  -1  -3   20.90    8.70
   2  -1  -3   15.60    9.00
   2  -1  -3    9.90    5.20
   2  -1  -3   20.00    6.10
  -2   1  -3   23.30    9.20
   2  -1  -3    4.60    4.30
   2   1   3   32.00   12.80
  -2  -1   3   24.10   11.40
  -2   1  -3   16.00    9.70
   2   1   3   13.80    3.70
  -2  -1   3   18.00   11.50
   2   1   3   11.50    5.00
  -2   1  -3   18.80    7.40
  -2  -1   3   24.60   10.60
  -2  -1   3   12.40    4.60
   2  -1  -3   32.10   11.80
   2   1   3   14.10    7.10
   2   1   3   17.30    9.90
   2  -1  -3   34.40    8.70
  -2   1  -3    7.90    8.20
   2  -1  -3   11.10    9.80
  -2  -1   3    1.60    6.20
   2   1   3   14.40    4.70
  -2  -1   3   17.40    8.30
   2   1   3    8.30    9.00
  -2   1  -3   19.80    5.80
   2   1   3   20.00    7.20
  -3   1   3  519.05   32.10
   3  -1   3  500.15   20.90
   3  -1   3  445.86   35.10
  -3  -1  -3  490.45   37.00
   3  -1   3  515.35   33.40
  -3  -1  -3  499.15   30.40
   3   1  -3  494.85   39.40
  -3  -1  -3  500.05   18.70
   3  -1   3  511.95   29.50
   3   1  -3  507.85   17.50
  -3   1   3  489.95   38.50
   3  -1   3  538.05   39.20
   3   1  -3  521.35   38.20
   3   1  -3  523.05   31.30
   3  -1   3  549.65   21.30
   3  -1   3  505.65   22.00
  -3  -1  -3  528.25   33.10
  -3   1   3  523.35   37.30
   3   1  -3  515.95   34.90
   3  -1   3  448.66   35.00
  -3  -1  -3  536.95   18.80
   3   1  -3  501.65   18.20
   3   1  -3  528.85   27.90
  -3   1   3  528.35   34.10
   3  -1   3  530.55   32.90
   3   1   3  495.45   42.10
   3  -1  -3  538.85   25.70
  -3  -1   3  592.54   37.90
   3  -1  -3  514.15   34.60
  -3   1  -3  491.15   36.60
   3   1   3  557.14   30.90
   3   1   3  512.15   21.10
  -3  -1   3  498.85   29.40
   3  -1  -3  513.95   35.50
   3   1   3  504.35   20.60
  -3  -1   3  471.65   34.70
   3  -1  -3  527.85   34.70
   3   1   3  523.25   21.30
   3   1   3  471.85   29.90
  -3   1  -3  566.24   36.10
  -3   1  -3  554.14   33.00
   3  -1  -3  500.05   33.00
   3  -1  -3  517.05   28.00
   3  -1  -3  504.05   26.50
   3   1   3  508.25   35.40
   3   1   3  522.25   22.00
   3   1   3  546.45   35.10
   4  -1   3  278.57   30.00
   4   1  -3  220.58   35.60
  -4   1   3  178.98   37.00
   4  -1   3  310.47   31.90
   4   1  -3  251.17   31.30
   4  -1   3  265.27   18.40
   4   1  -3  250.77   15.50
  -4  -1  -3  294.47   40.10
  -4   1   3  325.87   41.40
   4   1  -3  271.07   26.50
  -4  -1  -3  313.97   36.90
   4   1  -3  268.07   37.40
   4  -1   3  241.08   33.40
   4  -1   3  214.88   30.30
  -4  -1   3  259.37   33.60
   4   1   3  256.17   34.50
  -4   1  -3  207.18   39.00
  -4  -1   3  234.78   38.90
   4   1   3  275.97   55.79
  -4   1  -3  320.47   39.20
   4   1   3  243.08   18.50
   4  -1  -3  236.98   23.30
   4  -1  -3  249.38   26.20
  -4  -1   3  227.98   38.10
   4  -1  -3  243.98   27.30
   4  -1  -3  280.57   31.50
   5  -1   3  490.95   47.60
  -5  -1  -3  516.75   58.19
   5   1  -3  404.16   53.19
   5   1  -3  351.96   64.39
   5  -1   3  365.76   49.90
  -5   1   3  405.16   60.99
   5   1   3  409.36   53.79
  -5   1  -3  369.06   60.29
  -5   1  -3  508.45   64.59
   5   1   3  446.46   57.09
   5  -1  -3  420.56   49.20
  -5  -1   3  460.45   63.29
   0   2   3   -0.30    3.80
   0  -2  -3    1.20    5.30
   0  -2  -3    0.90    4.70
   0   2   3   -2.10    5.30
   0  -2   3    3.20    3.70
   0   2  -3   -6.30    4.30
   0   2  -3    2.70    5.10
   0  -2  -3    0.90    3.70
   0  -2   3    3.00    4.40
   0  -2   3    3.10    6.00
   0  -2   3   -1.60    3.60
   0  -2   3    6.30    5.50
   0   2  -3    4.50    3.70
   0   2   3   -0.30    3.70
   0  -2   3    5.50    4.30
   0  -2  -3    1.00    4.60
   0   2  -3    9.40    5.40
   0   2  -3   -2.20    5.30
   0   2  -3   -1.80    5.00
   0  -2  -3    5.10    4.20
   0  -2   3   -1.30    4.20
   0   2   3    1.10    4.40
   0  -2  -3    1.20    5.80
   0   2   3    4.90    5.60
   1   2  -3   13.60    5.70
   1  -2   3   17.50    7.00
  -1  -2  -3   22.90    7.80
   1   2  -3   27.80   10.60
   1  -2   3    9.30    7.10
  -1   2   3   20.70    8.00
  -1   2   3   14.30    5.50
  -1  -2  -3    9.70    6.40
  -1   2   3   20.40    3.20
  -1  -2  -3   14.00    5.90
   1   2  -3   21.60    9.00
   1  -2   3   19.00    7.80
  -1  -2  -3    7.80    7.70
   1  -2   3   23.70    7.50
  -1   2   3   10.10    8.50
   1   2  -3   34.70    7.80
  -1  -2  -3   19.30    4.60
   1   2  -3   15.20    6.00
  -1   2   3   12.70    4.90
   1  -2   3   23.40    8.70
   1   2  -3   17.50    5.80
  -1   2   3   19.00    5.90
  -1  -2   3   13.90    5.50
  -1   2  -3    9.60    6.60
  -1   2  -3   21.40    6.50
  -1  -2   3   24.30    7.90
  -1   2  -3   21.80    8.10
   1  -2  -3    4.60    7.20
   1  -2  -3   13.50    5.70
   1  -2  -3   17.70    5.80
  -1  -2   3   16.90    6.80
  -1  -2   3   14.90    6.50
   1  -2  -3   12.80    8.20
  -1  -2   3   26.90    8.10
   1   2   3   23.80    5.30
  -1  -2   3   15.70    8.50
  -1  -2   3   19.50    5.80
  -1   2  -3   20.80    3.90
   1   2   3   18.30    8.30
   1   2   3   13.40    6.70
   1   2   3   14.50    6.40
   1  -2  -3   10.20    6.00
  -1   2  -3   28.80    9.30
   1  -2  -3   21.10    6.40
   1   2   3   10.70    7.40
  -1   2  -3   13.20    5.80
   1   2   3   19.60    7.20
  -1   2  -3    9.60    6.50
   2   2  -3  434.86   19.50
  -2  -2  -3  431.86   16.00
   2   2  -3  446.46   32.90
  -2   2   3  429.86   31.00
   2  -2   3  369.26   23.90
   2  -2   3  418.36   19.90
   2  -2   3  427.96   29.20
   2   2  -3  444.16   18.00
   2  -2   3  417.86   22.30
  -2  -2  -3  420.26   16.40
   2   2  -3  446.16   25.80
   2   2  -3  412.06   20.30
  -2  -2  -3  420.16   15.60
  -2  -2  -3  440.46   22.60
   2   2  -3  410.56   21.30
  -2  -2  -3  424.66   15.40
   2  -2   3  427.36   28.20
   2  -2   3  447.96   26.40
  -2   2   3  398.86   19.40
  -2   2   3  398.96   23.30
   2  -2   3  411.86   22.20
  -2  -2  -3  428.96   29.10
   2   2  -3  413.26   30.10
  -2   2   3  401.46   25.40
  -2  -2  -3  423.96   22.10
   2   2  -3  399.76   23.60
   2   2  -3  441.86   27.20
   2  -2   3  464.95   21.20
  -2   2  -3  427.66   22.40
   2   2   3  368.06   29.60
   2  -2  -3  434.76   19.30
  -2  -2   3  404.16   21.20
  -2  -2   3  406.66   28.00
   2   2   3  443.26   29.60
   2  -2  -3  439.46   20.70
   2  -2  -3  426.76   14.20
   2  -2  -3  444.26   19.90
   2   2   3  432.76   19.70
   2  -2  -3  438.76   30.60
   2   2   3  418.36   22.10
   2   2   3  437.56   29.50
  -2   2  -3  421.66   20.50
  -2  -2   3  447.06   22.90
   2  -2  -3  372.76   28.20
   2  -2  -3  415.66   21.30
  -2  -2   3  428.56   29.40
  -2  -2   3  417.26   22.90
   2  -2  -3  409.16   23.60
   2   2   3  444.06   23.50
   2  -2  -3  412.96   23.40
   2  -2  -3  415.06   18.30
   2   2   3  430.96   15.80
  -2  -2   3  436.46   18.70
  -2   2  -3  398.76   27.40
   2  -2  -3  394.06   21.20
  -2   2  -3  401.46   27.20
   2   2   3  428.76   20.10
  -2   2  -3  396.56   29.70
   3  -2   3   73.39   13.00
   3  -2   3   48.50   18.30
   3   2  -3   56.39   11.30
   3   2  -3   61.69   14.40
  -3  -2  -3   64.89   12.00
  -3   2   3   68.49   22.50
   3  -2   3   76.39   12.60
   3   2  -3   60.79   14.50
  -3   2   3   72.49   18.40
   3  -2   3   65.39   11.80
   3   2  -3   53.49   17.50
   3  -2   3   57.89   16.10
  -3  -2  -3   66.39   16.10
   3   2  -3   64.99    9.70
   3  -2   3   52.79   12.50
  -3   2   3   68.99   15.60
  -3  -2  -3   86.19   23.30
   3   2  -3   63.79   12.20
   3   2   3   73.59    8.50
  -3   2  -3   58.99   19.90
   3  -2  -3   63.69   13.60
  -3   2  -3   53.99   18.80
   3  -2  -3   61.09   10.10
   3  -2  -3   64.79   11.10
   3  -2  -3   54.59   17.30
  -3  -2   3   53.59    9.60
   3   2   3   69.79   11.90
  -3  -2   3   81.99   20.20
  -3  -2   3   80.49   14.50
  -3   2  -3   52.49   15.20
   3   2   3   70.29   19.70
   3  -2  -3   60.09   10.40
   3  -2  -3   69.09   15.90
   3  -2  -3   60.29   10.70
   3   2   3   90.49   15.20
  -3  -2   3   58.39   14.10
  -3   2  -3   90.59   24.20
   3  -2  -3   96.79   19.50
   3  -2  -3   58.79    9.60
  -3  -2   3   96.99   24.30
   3   2   3   63.49   12.90
  -3   2  -3   88.09   16.10
   3  -2  -3   74.09   11.80
  -4  -2  -3  233.78   35.20
  -4   2   3  240.98   44.60
   4  -2   3  149.79   23.20
   4   2  -3  261.57   21.30
   4   2  -3  198.38   23.90
   4   2  -3  233.78   38.00
   4  -2   3  241.88   17.10
  -4  -2  -3  173.38   34.20
  -4   2   3  215.08   32.40
   4  -2   3  203.48   27.20
   4  -2   3  177.78   31.60
   4  -2  -3  218.58   22.10
  -4  -2   3  251.97   37.40
  -4   2  -3  246.78   43.40
   4  -2  -3  191.08   19.80
  -4   2  -3  243.48   38.50
  -4  -2   3  190.98   33.80
   4  -2  -3  227.78   18.90
   4   2   3  247.48   37.20
   4  -2  -3  195.78   26.50
  -4  -2   3  221.88   26.40
   4  -2  -3  238.48   38.20
  -5  -2  -3  490.25   60.29
  -5   2   3  545.85   70.59
   5   2  -3  436.36   60.59
   5   2  -3  508.55   55.69
   5   2   3  415.86   58.39
  -5  -2   3  531.75   70.89
  -5   2  -3  467.05   64.49
   5  -2  -3  388.86   54.99
   5   2   3  493.45   65.69
  -5   2  -3  354.56   65.59
   0   3  -3  225.28   16.50
   0  -3   3  194.68   19.50
   0  -3  -3  166.08   16.90
   0   3   3  197.48   16.20
   0   3  -3  198.88   17.10
   0  -3   3  215.38   15.90
   0  -3   3  200.18   17.00
   0   3   3  208.08   17.00
   0   3   3  210.88   16.70
   0  -3  -3  216.28   17.50
   0  -3  -3  230.68   17.00
   0   3   3  199.58   21.20
   0  -3   3  203.68   16.00
   0  -3   3  184.28   17.40
   0  -3   3  210.98   20.90
   0  -3  -3  211.58   19.80
   0   3  -3  213.58   16.90
   0   3   3  213.48   13.30
   0  -3   3  223.58   13.40
   0   3  -3  216.18   17.50
   0  -3  -3  185.38   14.90
  -1  -3  -3  562.54   30.40
  -1  -3  -3  563.34   29.30
  -1   3   3  602.34   32.10
  -1   3   3  565.84   24.30
   1   3  -3  587.84   27.40
  -1   3   3  565.14   33.00
   1  -3   3  545.15   28.20
  -1  -3  -3  574.74   25.40
   1   3  -3  572.54   28.40
   1   3  -3  587.74   27.40
   1  -3   3  589.64   30.80
   1  -3   3  584.94   28.80
   1  -3   3  577.04   27.60
   1   3  -3  554.44   28.40
  -1  -3  -3  618.74   28.70
   1  -3   3  582.54   18.50
   1  -3   3  557.34   30.80
  -1   3   3  600.44   19.70
  -1   3   3  586.64   26.70
   1   3  -3  566.64   33.50
   1  -3   3  595.94   28.60
   1  -3   3  565.94   24.20
  -1  -3  -3  595.04   24.60
   1   3   3  612.44   30.60
   1   3   3  552.24   28.60
  -1   3  -3  578.34   26.50
  -1  -3   3  583.24   30.80
  -1   3  -3  619.54   24.50
   1   3   3  544.35   31.40
  -1  -3   3  544.65   24.70
   1  -3  -3  617.44   29.60
   1  -3  -3  546.05   26.30
  -1  -3   3  576.04   28.50
  -1  -3   3  590.24   26.60
  -1   3  -3  549.25   31.00
   1   3   3  569.44   26.80
   1  -3  -3  568.84   29.40
  -1   3  -3  570.64   28.20
  -1  -3   3  579.44   26.90
   1  -3  -3  554.34   30.30
   1  -3  -3  583.94   31.10
   1   3   3  608.54   29.20
  -1  -3   3  584.24   31.20
   1   3   3  569.74   20.70
   1  -3  -3  548.95   25.60
  -1  -3   3  550.74   27.70
  -1  -3   3  543.95   29.80
  -2   3   3  736.73   34.60
   2  -3   3  771.02   35.50
  -2   3   3  791.92   45.40
   2  -3   3  762.22   38.50
  -2   3   3  710.63   21.40
   2  -3   3  700.83   40.50
  -2  -3  -3  720.93   27.20
   2   3  -3  733.03   32.10
   2   3  -3  674.83   48.30
   2  -3   3  733.73   35.40
  -2  -3  -3  704.93   28.60
   2   3  -3  719.73   31.30
   2   3  -3  702.33   34.40
   2  -3   3  723.73   33.10
  -2  -3  -3  707.23   35.60
   2  -3   3  725.93   28.30
   2  -3   3  699.23   27.60
  -2  -3  -3  717.73   27.80
  -2  -3  -3  647.64   32.40
  -2   3   3  703.03   34.20
   2  -3   3  718.43   36.30
  -2  -3  -3  740.83   40.70
  -2  -3  -3  713.63   29.10
   2   3  -3  748.63   34.70
  -2   3   3  742.83   28.30
   2   3  -3  703.13   41.20
   2  -3  -3  715.13   31.40
   2   3   3  690.43   36.80
   2   3   3  678.43   35.90
  -2  -3   3  730.83   26.20
   2   3   3  760.22   41.40
  -2  -3   3  707.73   32.50
  -2  -3   3  679.53   34.70
  -2   3  -3  730.03   28.70
   2   3   3  708.33   26.00
   2   3   3  789.22   32.30
  -2   3  -3  666.23   38.50
   2  -3  -3  713.13   34.40
  -2  -3   3  708.03   22.50
   2   3   3  701.73   34.50
   2   3   3  729.53   39.60
   2   3   3  701.03   27.30
  -2   3  -3  702.63   41.60
  -2  -3   3  714.73   27.20
   2  -3  -3  625.44   40.80
  -2   3  -3  732.43   37.20
  -2   3  -3  736.63   31.00
  -2  -3   3  721.33   39.40
   2  -3  -3  707.13   30.50
   2  -3  -3  716.83   34.00
   2  -3  -3  760.12   34.30
   2   3   3  700.73   42.10
  -2  -3   3  668.73   39.50
   3  -3   3   90.39   17.10
   3   3  -3   82.89   13.80
   3  -3   3  109.49   20.30
   3   3  -3  140.39   20.70
  -3  -3  -3   96.09   18.60
  -3   3   3   99.39   20.20
   3   3  -3   53.89   15.20
  -3  -3  -3   67.49   11.00
  -3   3   3   73.19   22.80
  -3  -3  -3  116.39   27.50
   3  -3   3   86.29   13.10
   3  -3   3   97.29   17.20
  -3  -3  -3  122.99   17.80
   3  -3   3   65.49   15.90
   3  -3   3   72.89   18.20
   3  -3  -3   98.79   15.80
  -3  -3   3   77.29   11.80
   3  -3  -3   70.49   21.60
   3  -3  -3   76.89   10.00
   3   3   3   80.79   21.50
  -3   3  -3  131.89   23.40
   3   3   3   86.39   11.90
   3  -3  -3   90.69   14.10
  -3  -3   3   60.59   23.50
   3   3   3   93.89   16.50
   3   3   3   59.59   14.00
  -3  -3   3   88.89   22.70
   3  -3  -3   85.59   15.50
   3   3   3  103.79   17.80
  -3   3  -3   79.89   14.80
  -3   3  -3   64.79   25.90
   3  -3  -3  111.89   20.20
   3  -3  -3   74.59   14.80
  -3  -3   3  115.69   17.30
  -3   3  -3   90.59   17.00
   3  -3  -3   80.59   14.20
  -3  -3   3   75.29   16.00
  -4   3   3  203.78   33.40
   4   3  -3  194.68   38.80
  -4  -3  -3  273.37   47.20
   4  -3   3  197.48   26.10
  -4   3   3  229.48   45.60
   4   3  -3  192.78   24.20
   4  -3   3  203.38   27.90
   4  -3   3  274.97   27.20
   4   3  -3  179.68   25.40
  -4  -3  -3  229.08   35.80
  -4  -3   3  161.18   35.10
   4  -3  -3  222.38   20.70
  -4  -3   3  319.47   49.50
   4   3   3  264.17   42.90
   4  -3  -3  267.17   30.40
   4  -3  -3  245.08   25.60
   4  -3  -3  222.88   23.10
  -4   3  -3  191.78   32.30
  -4   3  -3  224.08   42.30
   0  -4   3   46.20   14.00
   0  -4   3   27.90   10.40
   0   4   3   19.30    7.70
   0  -4  -3   34.00    9.70
   0   4   3   32.90   10.40
   0   4  -3   18.20   12.90
   0  -4  -3   22.60    8.90
   0   4   3   67.79   17.00
   0   4  -3   27.60   11.90
   0  -4  -3    6.80   13.90
   0  -4   3   40.80   12.60
   0   4   3   29.00   12.70
   0   4  -3   30.10   12.60
   0   4  -3   28.90   12.00
   0  -4   3   32.80   11.10
   0   4  -3   11.60   10.00
   0  -4  -3   28.90   11.20
   0  -4  -3   73.19   16.80
   0  -4   3   22.00   13.10
   0   4   3   37.00   10.70
   0  -4  -3   16.40   11.60
   0  -4  -3   17.00   10.80
   0  -4   3   32.50   12.20
   0  -4   3   36.30   10.70
   1  -4   3  158.88   22.30
   1  -4   3  137.39   24.90
   1  -4   3  151.48   11.00
   1   4  -3  165.98   19.30
  -1  -4  -3  125.99   20.50
   1  -4   3  142.19   18.20
  -1   4   3  127.09   12.80
   1   4  -3  170.38   25.10
  -1   4   3  142.49   23.50
  -1  -4  -3  149.99   24.90
  -1  -4  -3  168.88   22.70
   1  -4   3  131.49   22.40
  -1  -4  -3  133.29   17.10
   1  -4   3  155.18   21.90
   1   4  -3  146.69   21.20
   1  -4   3  103.59   17.40
  -1   4   3  107.89   19.00
  -1  -4  -3  127.69   17.60
   1  -4   3  154.48   18.10
   1   4  -3  125.69   18.70
  -1  -4  -3  169.88   28.00
  -1   4  -3  160.38   23.10
  -1  -4   3  180.68   26.30
   1  -4  -3  100.89   18.00
  -1  -4   3  133.49   21.70
   1   4   3  126.49   17.00
  -1  -4   3  152.38   17.00
   1  -4  -3  144.19   17.90
  -1  -4   3  121.39   18.70
   1  -4  -3  123.19   17.50
  -1   4  -3  146.19   20.40
   1  -4  -3  120.29   19.10
   1   4   3  149.99   21.30
   1  -4  -3  136.39   25.90
   1   4   3  142.09   20.80
  -1  -4   3  152.68   22.40
  -1   4  -3  147.39   24.80
   1  -4  -3   92.59   18.20
   1   4   3  167.38   23.80
   1  -4  -3  139.99   21.40
  -1   4  -3  120.69   17.90
  -1  -4   3  136.09   19.50
   1   4   3  138.29   19.10
  -1  -4   3  112.19   18.30
  -1  -4   3  187.88   21.20
   2  -4   3  201.48   12.30
  -2  -4  -3  239.98   28.70
   2  -4   3  214.48   22.50
  -2  -4  -3  195.98   23.50
  -2   4   3  209.38   17.60
  -2  -4  -3  204.08   18.60
  -2  -4  -3  177.98   17.80
  -2  -4  -3  222.48   19.00
  -2  -4  -3  223.18   19.60
  -2   4   3  226.18   24.20
   2  -4   3  191.98   18.70
   2   4  -3  183.18   20.80
   2  -4   3  205.68   26.40
  -2   4   3  258.07   33.80
  -2   4   3  217.98   13.10
   2  -4   3  222.98   25.70
  -2   4   3  202.88   29.10
   2  -4   3  189.78   28.20
   2   4  -3  188.38   23.70
  -2  -4  -3  198.68   28.90
   2  -4  -3  217.78   26.80
  -2  -4   3  202.08   28.50
   2   4   3  204.28   30.60
   2  -4  -3  210.78   21.80
   2  -4  -3  206.58   28.10
  -2   4  -3  188.78   12.50
  -2  -4   3  197.18   19.80
   2   4   3  182.18   24.50
  -2   4  -3  180.28   19.10
  -2  -4   3  167.98   25.40
  -2  -4   3  206.88   18.30
   2  -4  -3  189.08   25.80
   2   4   3  200.78   16.30
   2   4   3  187.28   29.80
   2  -4  -3  157.18   21.30
  -2   4  -3  203.28   30.70
  -2  -4   3  190.78   29.10
  -2   4  -3  215.88   21.70
   3   4  -3   39.50   14.30
   3  -4   3   45.10   19.30
   3  -4   3   16.90   17.00
   3  -4   3   33.70   13.20
  -3  -4  -3   36.50   25.40
  -3   4   3   39.50   19.30
   3   4  -3   47.50   16.80
  -3   4   3   33.60   24.10
   3  -4   3   95.39   23.30
   3   4  -3   32.30   21.50
  -3  -4  -3   56.19   14.90
  -3  -4  -3   51.49    9.30
  -3  -4  -3   67.59   11.00
   3  -4  -3   20.60   16.00
   3  -4  -3   65.19   17.90
  -3   4  -3   32.30   26.30
  -3  -4   3   22.00   18.60
  -3   4  -3   12.10   22.20
  -3  -4   3   53.69   21.20
  -3   4  -3   53.39   14.70
   3  -4  -3   60.09   16.40
   3   4   3   56.19   24.40
  -3  -4   3   53.69   21.90
   3  -4  -3   48.80   18.80
   4  -4   3  348.07   43.70
  -4   4   3  351.16   60.59
   4  -4   3  278.47   37.20
   4   4  -3  248.68   42.50
  -4  -4  -3  270.57   47.40
   4  -4   3  249.68   36.00
   4   4  -3  313.67   45.40
  -4  -4   3  315.27   51.19
   4  -4  -3  305.47   33.40
  -4   4  -3  261.87   45.60
   4   4   3  320.17   49.99
   4  -4  -3  346.07   37.10
   4  -4  -3  329.27   34.90
  -4  -4   3  337.27   50.39
   0   5  -3   53.99   18.30
   0   5   3   63.79   15.50
   0  -5   3   92.89   17.40
   0   5  -3   57.19   17.20
   0   5  -3   52.19   17.50
   0  -5   3   71.79   15.30
   0   5   3   50.49   16.50
   0  -5   3   82.39   18.80
   0  -5  -3   78.69   25.80
   0  -5   3   48.30   20.80
   0  -5   3   43.30   13.80
   0  -5  -3   93.89   19.70
   0  -5  -3   48.80   19.40
   0  -5  -3   56.99   17.10
   0  -5  -3   69.79   17.20
   0  -5  -3   59.69   15.70
   0  -5   3   64.69   23.80
  -1  -5  -3  382.36   30.90
  -1  -5  -3  400.76   39.30
  -1  -5  -3  337.57   27.10
   1  -5   3  315.87   37.20
   1  -5   3  335.17   28.40
   1   5  -3  320.37   31.60
   1   5  -3  395.26   30.10
  -1   5   3  355.96   22.70
   1  -5   3  394.86   31.80
  -1  -5  -3  356.36   31.20
   1  -5   3  354.86   34.30
   1  -5   3  421.66   40.40
   1   5  -3  375.76   31.60
  -1   5   3  346.27   36.50
  -1  -5   3  314.97   28.50
  -1  -5   3  333.07   32.00
  -1   5  -3  371.16   29.80
   1  -5  -3  379.16   36.70
  -1   5  -3  335.17   31.60
   1  -5  -3  430.16   41.30
   1  -5  -3  364.46   29.00
   1   5   3  324.57   33.20
   1   5   3  339.27   24.90
  -1   5  -3  350.96   37.90
   1  -5  -3  377.26   29.90
   1  -5  -3  344.07   49.50
  -1  -5   3  301.17   35.80
  -1  -5   3  353.86   34.10
  -2  -5  -3   53.19   20.60
   2   5  -3   12.20   15.00
  -2  -5  -3    4.30   10.60
  -2  -5  -3   33.60   21.90
   2  -5   3    9.10   23.30
   2  -5   3   13.40   14.90
  -2   5   3   -3.80   15.50
   2  -5   3    1.70   14.00
  -2  -5  -3    0.70   13.10
  -2   5   3  -11.20    8.30
   2   5  -3   14.80   16.10
   2  -5   3   -1.00   18.60
  -2   5  -3   25.30   16.40
  -2  -5   3  -16.00   20.10
   2  -5  -3   42.20   28.70
   2  -5  -3  -17.00   17.60
  -2  -5   3    0.70   21.00
  -2   5  -3    1.50   21.40
   2  -5  -3    2.70   21.30
   2  -5  -3   17.20   14.20
  -2  -5   3   18.60   20.60
  -2   5  -3   27.50   12.40
   2   5   3   -1.80   21.30
  -2  -5   3   21.70   14.30
  -2   5  -3    8.00    8.00
   2   5   3  -14.20   14.80
  -3   5   3  535.65   47.70
   3   5  -3  621.54   47.50
   3  -5   3  672.93   49.70
  -3  -5  -3  620.34   58.59
   3   5  -3  623.74   40.30
  -3   5   3  587.34   63.79
   3  -5   3  683.53   45.30
   3  -5   3  588.04   46.10
  -3   5   3  557.44   29.10
   3   5   3  498.05   58.99
   3  -5  -3  675.93   48.30
  -3   5  -3  593.44   64.79
   3  -5  -3  676.83   42.70
  -3  -5   3  585.74   58.39
  -3  -5   3  529.55   55.69
   3  -5  -3  658.53   40.90
   4  -5   3   91.89   34.30
   4   5  -3   50.99   30.10
  -4   5   3   80.49   51.59
  -4   5  -3   68.89   43.10
   0  -6   3  331.47   45.40
   0  -6  -3  289.67   31.90
   0  -6  -3  295.77   32.10
   0   6  -3  326.47   39.20
   0  -6   3  247.28   25.60
   0  -6   3  260.87   31.00
   0  -6  -3  290.47   32.10
   0  -6   3  231.18   32.90
   0   6   3  277.67   34.80
   0   6  -3  299.97   35.40
   0  -6  -3  319.97   48.80
  -1   6   3   84.69   25.90
   1  -6   3   18.40   29.40
   1   6  -3   33.80   21.20
   1  -6   3   31.20   18.00
   1  -6   3  111.09   23.70
  -1  -6  -3   59.49   26.40
   1   6  -3   71.29   19.80
  -1  -6  -3   80.29   19.80
  -1  -6  -3   95.19   33.40
   1  -6  -3   55.49   28.60
  -1  -6   3   53.09   20.10
  -1  -6   3   43.10   18.30
  -1  -6   3  108.99   24.40
   1   6   3   41.10   16.90
  -1  -6   3   92.79   33.20
   1  -6  -3   68.89   19.60
   1  -6  -3  111.59   24.30
  -1   6  -3   47.20   23.70
  -1   6  -3   71.49   22.60
  -2  -6  -3  210.98   30.30
   2  -6   3  209.78   34.10
   2  -6   3  183.88   35.50
  -2  -6  -3  299.87   48.10
   2   6  -3  261.07   35.10
  -2   6   3  200.68   28.50
  -2   6   3  146.39   24.70
   2   6  -3  145.99   29.80
   2  -6   3  246.58   35.50
  -2   6   3  203.68   41.10
   2   6   3  233.28   41.50
  -2  -6   3  206.78   34.80
   2  -6  -3  203.98   36.10
  -2  -6   3  189.58   27.70
   2  -6  -3  214.28   36.10
  -2   6  -3  181.68   22.20
  -2  -6   3  201.68   36.20
   2  -6  -3  203.78   29.80
  -3  -6  -3   38.40   40.50
   3  -6   3   59.09   24.50
   3  -6   3  -20.10   30.10
  -3   6   3    2.40   41.00
   3   6  -3   56.79   29.60
   3  -6   3   34.40   28.90
   3   6  -3   34.70   37.10
   3  -6  -3   14.00   25.80
   3  -6  -3  103.09   30.40
  -3  -6   3  -23.90   35.60
   3   6   3   35.00   40.70
   3  -6  -3   -6.90   24.70
  -3  -6   3    6.90   35.60
  -3   6  -3   64.99   43.90
   0  -7  -3  142.09   40.80
   0   7  -3   98.09   29.80
   0  -7  -3  108.79   32.40
   0  -7   3  161.68   42.60
   0  -7   3   91.39   28.00
   0   7  -3  125.89   28.90
   0  -7   3  102.39   30.20
   0  -7  -3   93.59   31.30
   0   7   3  142.39   32.80
   0  -7   3  111.99   29.80
  -1  -7  -3  134.09   34.40
  -1  -7  -3   78.59   27.40
   1   7  -3   69.19   25.10
  -1   7   3   74.89   35.20
   1  -7   3   89.59   38.20
   1   7  -3   79.99   27.00
   1  -7   3   74.49   27.60
   1  -7   3   33.10   27.80
   1  -7  -3   48.30   23.50
  -1   7  -3  110.39   33.70
   1  -7  -3   87.79   34.10
  -1  -7   3   14.20   28.90
   1  -7  -3  102.39   28.30
   1  -7  -3  117.49   30.00
  -1  -7   3  118.39   28.80
   2  -7   3  115.99   30.20
   2  -7   3   63.29   42.30
  -2   7   3  110.39   24.60
   2  -7   3  150.38   34.20
  -2   7   3  133.49   44.10
  -2  -7  -3  168.08   31.30
   2   7  -3   67.89   30.80
  -2  -7  -3  181.08   41.00
   2   7   3   68.29   40.40
   2  -7  -3  110.59   33.10
  -2   7  -3  175.28   48.50
  -2  -7   3   43.50   40.80
   2  -7  -3   55.29   33.60
  -2  -7   3  150.18   29.80
   2  -7  -3   51.09   44.80
   0   0   4  207.58   10.00
   0   0  -4  219.28    9.90
   0   0  -4  225.58   10.60
   0   0   4  221.68    9.00
   0   0  -4  218.98    9.50
   0   0   4  220.48    9.50
   0   0   4  211.58    9.20
   0   0   4  201.28    8.70
   0   0   4  225.38    9.70
   0   0   4  213.08    9.90
   0   0  -4  227.38    9.80
   0   0  -4  202.48    9.10
   0   0  -4  197.48    8.60
   0   0  -4  206.48    8.90
  -1   0  -4 4140.49  103.29
  -1   0   4 4010.60  102.29
   1   0  -4 4053.79   99.59
  -1   0   4 3956.10   96.39
  -1   0   4 4190.98  103.99
   1   0  -4 3978.30  103.39
  -1   0   4 3989.60  100.39
   1   0   4 4082.19  105.79
   1   0  -4 4176.68  104.69
   1   0  -4 4022.90   99.89
  -1   0   4 3944.31  105.99
   1   0  -4 4116.89  101.59
  -1   0   4 3979.30  104.69
   1   0  -4 3918.31   96.79
   1   0   4 4133.39  100.89
   1   0   4 4031.90   97.19
  -1   0   4 3782.82  102.29
   1   0   4 4153.38  104.19
  -1   0  -4 3880.01   96.39
  -1   0  -4 3973.80  100.89
   1   0  -4 3966.40  102.89
   1   0  -4 3942.81   94.59
   1   0   4 4035.90   95.79
   1   0   4 3985.80   99.39
   1   0   4 4071.69  102.69
   1   0   4 3920.81   97.59
  -1   0  -4 3973.00  101.49
   2   0   4 1886.31   51.39
   2   0  -4 1820.12   58.19
  -2   0  -4 1863.51   60.59
  -2   0   4 1864.01   64.09
   2   0   4 1901.21   58.59
   2   0   4 1882.21   62.69
  -2   0  -4 1851.11   61.59
  -2   0  -4 1757.22   58.89
   2   0   4 1855.51   59.89
   2   0  -4 1841.82   58.69
   2   0   4 1866.11   58.29
  -2   0   4 1850.41   57.29
   2   0  -4 1961.00   60.39
   2   0   4 1915.61   61.49
   2   0   4 1926.31   49.30
   2   0  -4 1921.81   58.89
  -2   0   4 1845.12   59.49
   2   0   4 1888.51   63.29
   2   0  -4 1895.81   64.79
   2   0   4 1891.91   60.09
   2   0  -4 1791.02   61.79
   2   0   4 1879.11   49.50
  -2   0   4 1823.22   63.29
   2   0  -4 1915.21   58.69
  -2   0  -4 1916.81   60.99
   2   0  -4 1915.01   55.19
   2   0  -4 1860.71   45.00
  -2   0   4 1839.62   60.59
  -2   0  -4 1910.11   50.69
   3   0   4   54.19   17.80
   3   0  -4   33.20   12.80
   3   0   4   53.79   17.60
   3   0   4   19.00    6.80
  -3   0   4   21.80   12.90
  -3   0   4   24.50   14.00
   3   0  -4   -1.50   14.40
  -3   0  -4   25.00   13.20
   3   0  -4   26.50   10.00
   3   0  -4   28.50   11.30
  -3   0   4   16.90   15.60
   3   0   4   11.80   12.50
  -3   0  -4   17.20   12.50
   3   0   4    6.10   12.10
   3   0  -4   -2.40   16.80
   3   0   4   18.30    7.80
   3   0  -4   27.20   17.20
   3   0  -4   12.70   16.30
   3   0   4   27.20    7.10
   3   0   4   21.50   17.50
  -3   0   4   25.80   12.40
  -3   0   4   13.60   13.40
   3   0  -4   13.20   18.00
   3   0  -4   14.80    9.00
  -3   0  -4   17.40    4.50
   3   0   4   -7.40   12.00
   3   0   4   19.30    6.20
   4   0   4  252.17   33.70
   4   0  -4  224.58   28.10
  -4   0  -4  219.98   34.90
   4   0   4  180.48   21.70
   4   0   4  178.38   22.40
   4   0   4  234.48   33.50
   4   0   4  199.48   23.00
   4   0  -4  176.48   28.00
   4   0  -4  212.28   29.30
   4   0   4  168.68   24.30
  -4   0   4  240.48   35.80
   4   0   4  208.08   22.70
  -4   0   4  185.28   42.10
  -4   0  -4  281.17   38.50
  -5   0  -4  -71.59   32.90
   5   0   4   51.49   28.60
  -5   0  -4   30.70   30.20
   5   0  -4   16.50   28.50
   0   1  -4 3523.15   83.59
   0  -1   4 3394.76   83.39
   0   1  -4 3419.16   84.89
   0   1   4 3450.75   83.99
   0  -1   4 3343.57   84.59
   0  -1  -4 3439.86   84.09
   0   1  -4 3334.97   81.29
   0   1  -4 3362.86   85.29
   0   1  -4 3481.45   83.89
   0   1   4 3321.37   86.39
   0   1   4 3315.17   83.39
   0  -1   4 3335.97   83.89
   0   1   4 3230.68   83.49
   0  -1   4 3438.56   86.89
   0  -1  -4 3494.25   86.99
   0  -1   4 3376.16   85.19
   0  -1  -4 3274.57   81.39
   0   1   4 3286.67   80.69
   0   1  -4 3354.16   85.29
   0  -1  -4 3370.56   83.79
   0  -1  -4 3327.57   83.99
   0   1  -4 3422.96   86.59
   1   1  -4  411.86   23.70
   1  -1   4  474.75   18.80
   1   1  -4  457.45   17.10
  -1  -1  -4  451.75   17.50
   1   1  -4  466.75   19.60
  -1  -1  -4  478.35   16.60
  -1   1   4  457.15   17.40
   1   1  -4  461.05   15.60
  -1  -1  -4  489.35   18.10
  -1   1   4  442.16   18.60
  -1  -1  -4  462.75   21.60
  -1  -1  -4  448.36   16.50
   1   1  -4  461.55   19.10
   1  -1   4  486.25   18.10
   1  -1   4  457.45   18.40
   1  -1   4  444.36   19.00
  -1  -1  -4  465.55   14.00
  -1   1   4  431.16   23.80
   1   1  -4  450.45   16.40
   1   1  -4  442.36   18.10
  -1  -1  -4  391.56   24.30
   1  -1   4  469.95   14.00
  -1   1   4  451.35   15.80
  -1   1  -4  472.25   22.70
   1  -1  -4  471.15   23.50
   1   1   4  466.75   13.60
   1  -1  -4  470.85   18.10
   1   1   4  463.55   22.50
   1  -1  -4  464.35   15.90
   1   1   4  500.65   17.40
   1  -1  -4  456.25   15.90
  -1  -1   4  460.35   15.20
  -1   1  -4  481.45   17.50
   1  -1  -4  514.15   20.00
   1   1   4  466.45   17.60
   1   1   4  464.85   19.50
   1  -1  -4  472.45   18.40
  -1  -1   4  445.66   21.70
   1  -1  -4  417.96   23.60
  -1   1  -4  473.15   19.20
  -1  -1   4  457.75   14.80
   1   1   4  447.86   22.20
  -1   1  -4  452.45   19.30
  -1  -1   4  455.45   14.70
  -1   1  -4  444.06   20.40
   1  -1  -4  470.65   11.80
  -1  -1   4  444.36   22.70
   1  -1  -4  456.45   14.90
   1  -1  -4  469.35   17.00
  -1  -1   4  479.35   20.20
  -1  -1   4  437.56   19.60
  -2  -1  -4 1116.69   37.80
   2  -1   4 1154.78   37.60
   2  -1   4 1131.09   38.40
   2   1  -4 1140.09   48.00
   2  -1   4 1128.39   35.80
   2  -1   4 1126.29   44.60
   2  -1   4 1059.69   44.50
   2  -1   4 1164.88   44.00
   2   1  -4 1092.69   31.40
   2  -1   4 1099.79   42.70
  -2  -1  -4 1131.99   36.00
  -2  -1  -4 1128.69   40.30
  -2   1   4 1106.89   48.30
  -2   1   4 1054.29   39.40
   2   1  -4 1131.29   31.00
   2   1  -4 1125.09   44.80
   2  -1   4 1146.99   41.40
  -2   1   4 1097.19   44.20
   2  -1   4 1128.29   38.80
   2  -1   4 1135.59   34.40
   2   1  -4 1167.58   42.50
   2  -1   4 1111.59   29.70
  -2  -1  -4 1049.30   44.60
   2   1  -4 1151.38   44.60
   2   1  -4 1147.19   37.90
   2   1  -4 1080.59   39.40
  -2  -1   4 1112.09   47.10
  -2  -1   4 1136.59   32.30
   2  -1  -4 1162.18   36.00
   2  -1  -4 1128.79   41.60
   2   1   4 1077.69   45.30
   2  -1  -4 1126.19   43.60
  -2  -1   4 1157.68   41.00
  -2  -1   4 1163.48   32.30
   2   1   4 1150.18   28.80
   2   1   4 1117.29   33.40
  -2   1  -4 1127.59   40.60
  -2  -1   4 1077.69   36.40
   2   1   4 1137.69   37.50
   2   1   4 1127.09   34.20
  -2   1  -4 1069.39   44.90
  -2   1  -4 1079.29   43.20
   2  -1  -4 1125.79   30.50
   2   1   4 1134.39   36.60
   2   1   4 1052.59   44.20
   2  -1  -4 1140.69   39.60
  -2   1  -4 1141.49   35.80
   2   1   4 1144.59   37.80
   2   1   4 1161.68   46.10
   2  -1  -4 1105.49   32.40
   2   1   4 1076.69   44.20
  -2  -1   4 1085.29   43.60
  -2  -1   4 1127.89   45.60
   2  -1  -4 1089.89   36.90
  -2   1  -4 1126.69   45.50
   2  -1  -4 1081.09   47.00
   2  -1  -4 1093.09   33.90
   2  -1  -4 1104.69   40.50
  -3  -1  -4   24.90   11.50
   3   1  -4   21.10   15.80
  -3  -1  -4   16.70   15.80
   3   1  -4   28.30    5.90
   3  -1   4   10.80   15.70
   3  -1   4   16.90   10.80
   3   1  -4   20.90   15.90
  -3   1   4   33.40   14.70
  -3   1   4   25.10   15.80
   3  -1   4   45.90   15.90
  -3   1   4   28.80   13.70
   3  -1   4   19.30    5.90
   3   1  -4   33.40   13.80
   3  -1   4   19.10    7.70
   3   1  -4   29.10   14.70
   3   1  -4   20.20    5.10
   3   1  -4   27.40   11.30
   3   1  -4   50.29   18.90
   3  -1   4   28.30   11.30
  -3  -1  -4   24.90   14.50
   3  -1   4   54.29   13.60
   3  -1   4   13.20   13.80
  -3  -1  -4   33.90    8.10
   3  -1   4   19.90    9.10
  -3   1  -4   16.30   14.60
   3   1   4   34.70   15.40
   3  -1  -4   -5.40   14.60
  -3   1  -4   35.10   17.50
   3   1   4   27.50   11.40
  -3  -1   4   27.90   15.70
  -3   1  -4   18.00   13.30
   3   1   4   31.80    6.00
   3  -1  -4   18.60    9.50
  -3  -1   4    7.30   11.80
   3  -1  -4   25.50   17.40
   3  -1  -4   10.50   14.30
   3   1   4   25.30   15.10
  -3  -1   4   20.80   15.00
   3  -1  -4   23.90    8.40
   3   1   4   28.80   13.10
   3   1   4   25.00    9.60
   3  -1  -4   27.20    9.10
   3  -1  -4   29.50   13.70
  -3  -1   4   16.30   15.40
   3   1   4   26.40   18.70
   4   1  -4  356.66   28.40
   4   1  -4  259.67   36.10
   4  -1   4  363.36   48.50
   4   1  -4  363.46   41.50
   4  -1   4  314.07   32.50
   4  -1   4  390.16   32.80
  -4  -1  -4  313.57   40.80
   4  -1   4  301.87   31.90
   4   1  -4  309.97   30.90
   4  -1   4  341.77   37.50
   4  -1   4  348.47   19.50
  -4   1   4  324.27   42.00
   4   1  -4  336.07   17.30
  -4   1   4  282.67   42.80
  -4  -1  -4  349.96   37.80
   4   1   4  280.57   45.40
   4  -1  -4  342.37   35.90
   4   1   4  327.67   40.10
   4  -1  -4  307.47   14.80
   4  -1  -4  364.56   29.30
  -4   1  -4  258.87   37.50
  -4  -1   4  260.27   43.30
  -4  -1   4  332.97   41.00
   4  -1  -4  322.87   26.50
   4  -1  -4  373.66   29.10
  -4   1  -4  349.27   41.20
   5  -1   4   52.89   28.20
   5  -1   4   -0.70   27.00
   5   1  -4  -16.40   30.70
  -5  -1  -4   74.79   35.70
  -5   1   4   18.00   36.20
  -5   1  -4  107.89   42.40
   5   1   4   32.20   29.50
  -5  -1   4   10.80   37.80
   5  -1  -4   60.99   26.90
  -5   1  -4   56.79   35.50
   5   1   4   97.09   36.20
   0  -2  -4  721.43   30.80
   0  -2  -4  715.13   26.80
   0   2  -4  758.12   26.90
   0  -2   4  773.22   30.90
   0  -2   4  740.83   22.90
   0   2  -4  711.03   28.50
   0  -2  -4  748.93   24.60
   0   2  -4  757.22   23.20
   0   2   4  768.22   27.20
   0   2  -4  772.12   29.00
   0  -2   4  761.62   28.40
   0   2  -4  745.03   26.60
   0  -2  -4  777.82   29.70
   0   2   4  767.52   24.70
   0   2  -4  788.52   28.40
   0  -2   4  745.93   27.50
   0   2   4  777.32   30.80
   0  -2   4  776.42   28.60
   0  -2  -4  784.32   26.10
   0   2  -4  775.22   30.70
   0  -2   4  778.22   25.80
   0   2   4  791.62   27.30
   0   2   4  765.52   27.40
  -1  -2  -4 5123.59  137.09
   1  -2   4 5399.36  137.39
  -1   2   4 5051.99  132.19
  -1  -2  -4 5356.06  134.59
   1   2  -4 5317.67  134.39
   1   2  -4 5577.14  141.79
  -1   2   4 5163.58  124.89
  -1  -2  -4 5358.06  137.39
  -1  -2  -4 5304.27  131.79
   1   2  -4 5267.27  136.89
   1  -2   4 5346.57  136.49
   1   2  -4 5076.59  133.49
  -1  -2  -4 5182.98  128.29
   1   2  -4 5534.85  137.29
   1  -2   4 5491.05  135.69
   1   2  -4 5276.47  134.79
   1  -2   4 5277.87  135.39
   1  -2   4 5301.37  130.79
  -1   2   4 5112.89  141.99
   1  -2   4 5238.88  136.49
  -1   2   4 5227.38  134.19
  -1   2   4 5542.15  136.79
   1   2   4 5387.46  133.29
  -1   2  -4 5317.67  135.99
   1   2   4 5102.09  123.59
   1   2   4 5393.86  138.19
  -1   2  -4 5291.87  138.69
   1  -2  -4 5105.19  130.89
  -1  -2   4 5333.47  134.89
  -1  -2   4 5275.47  138.29
  -1  -2   4 5176.98  130.79
  -1   2  -4 5231.48  124.79
  -1  -2   4 5136.39  134.79
   1  -2  -4 5109.39  131.89
   1   2   4 5480.25  135.59
  -1   2  -4 5270.27  134.49
  -1  -2   4 5502.35  137.09
   1  -2  -4 5273.07  135.89
  -1  -2   4 5501.15  137.89
   1  -2  -4 5431.56  140.99
  -1   2  -4 5264.57  137.79
   1   2   4 5493.25  138.09
  -1   2  -4 5132.99  139.89
  -1   2  -4 5486.55  137.99
  -1  -2   4 5318.37  136.19
   1   2   4 5276.77  139.69
   1  -2  -4 5169.68  135.59
   2   2  -4  467.75   22.10
   2   2  -4  488.35   19.00
  -2   2   4  470.45   21.80
  -2   2   4  412.26   26.80
   2  -2   4  463.75   23.90
  -2  -2  -4  473.95   17.80
  -2  -2  -4  452.55   23.90
  -2  -2  -4  483.75   17.50
   2  -2   4  451.65   24.20
   2   2  -4  465.45   31.30
  -2  -2  -4  483.25   18.50
   2   2  -4  449.16   27.00
   2   2  -4  452.35   23.40
   2   2  -4  499.85   29.10
   2   2  -4  511.75   34.90
   2  -2   4  484.75   27.40
  -2  -2  -4  477.85   16.10
   2   2  -4  481.45   21.10
   2  -2   4  463.45   30.10
   2   2  -4  493.15   24.80
  -2   2   4  444.36   21.60
  -2   2   4  502.35   32.70
   2  -2   4  456.95   22.10
   2  -2   4  505.75   26.70
  -2  -2  -4  430.86   23.70
   2  -2   4  490.65   23.10
  -2   2   4  463.65   24.20
  -2  -2  -4  496.45   31.60
   2  -2  -4  469.55   21.10
  -2   2  -4  485.15   20.60
  -2   2  -4  493.25   30.30
   2   2   4  468.35   19.20
  -2  -2   4  460.55   22.50
   2   2   4  519.55   32.60
  -2  -2   4  434.96   28.20
   2  -2  -4  490.65   23.30
  -2   2  -4  499.35   29.50
   2   2   4  488.35   21.80
   2   2   4  474.95   16.00
   2  -2  -4  512.95   21.20
  -2  -2   4  465.15   23.50
   2  -2  -4  501.45   25.40
   2  -2  -4  466.75   13.60
  -2  -2   4  492.55   25.80
  -2  -2   4  459.75   19.00
  -2   2  -4  490.05   24.20
   2   2   4  513.95   25.50
   2   2   4  506.85   31.30
  -2   2  -4  471.55   24.80
   2   2   4  455.15   31.70
  -2   2  -4  495.75   31.40
   2  -2  -4  474.15   20.70
  -2  -2   4  464.85   30.40
   2  -2  -4  428.36   29.20
   2  -2  -4  475.05   20.30
   3  -2   4  897.81   36.10
   3  -2   4  849.22   44.60
   3  -2   4  931.91   36.00
  -3  -2  -4  854.11   40.80
   3  -2   4  902.11   44.20
  -3   2   4  909.01   48.00
  -3  -2  -4  887.71   49.70
  -3   2   4  931.71   41.00
   3   2  -4  869.81   33.60
   3   2  -4  866.91   31.60
   3  -2   4  866.71   37.20
   3  -2   4  840.22   34.70
   3   2  -4  827.62   45.80
  -3   2   4  906.41   52.79
   3   2  -4  890.21   39.50
   3   2  -4  870.21   37.40
   3  -2   4  883.81   41.60
   3   2  -4  905.31   36.00
   3  -2  -4  846.12   40.70
   3  -2  -4  882.51   32.10
   3   2   4  858.81   48.40
   3  -2  -4  883.51   29.20
  -3   2  -4  881.11   42.40
   3   2   4  851.81   35.90
  -3  -2   4  927.71   50.89
  -3   2  -4  861.51   46.90
  -3  -2   4  902.71   36.40
   3  -2  -4  900.11   39.70
  -3   2  -4  829.02   50.69
   3  -2  -4  891.11   33.00
   3  -2  -4  873.81   30.90
   3  -2  -4  783.82   43.30
   3   2   4  900.11   36.50
   3  -2  -4  829.92   31.30
   3   2   4  878.01   24.80
   3  -2  -4  954.50   34.00
  -3  -2   4  848.42   30.80
  -3  -2   4  958.30   41.40
  -3  -2   4  865.31   49.80
   3   2   4  933.41   34.30
   3  -2  -4  854.91   35.50
  -4  -2  -4  -31.20   22.80
  -4   2   4   13.80   21.50
   4   2  -4   49.80   24.50
   4  -2   4   -4.20   19.80
   4   2  -4   14.30   11.20
   4  -2   4  -25.10   14.80
   4   2  -4   12.60   22.40
   4  -2   4   -2.50    9.30
  -4  -2  -4   -3.10   21.60
  -4   2   4   18.20   23.80
   4  -2   4   -3.80    9.40
   4  -2  -4   14.60   14.50
  -4   2  -4    7.30   25.00
   4  -2  -4    0.10    9.90
   4   2   4   11.30   23.90
   4  -2  -4   -3.30   10.90
   4  -2  -4    7.80   10.80
   4   2   4   26.40   24.40
  -4  -2   4   11.00   24.70
  -4   2  -4   26.40   22.60
  -4  -2   4  -25.30   23.20
   5  -2   4  283.37   48.00
  -5  -2  -4  218.18   48.60
  -5  -2  -4  220.08   41.90
  -5   2   4  227.78   46.70
   5   2  -4  295.57   49.10
  -5   2  -4  190.18   41.50
  -5  -2   4  172.98   49.99
  -5   2  -4  298.47   45.80
   5  -2  -4  245.18   39.50
   5   2   4  221.48   45.10
   5   2   4  265.97   51.49
   0   3   4 2481.15   71.49
   0  -3   4 2443.46   71.49
   0  -3  -4 2365.66   74.09
   0  -3   4 2384.06   77.49
   0   3  -4 2328.27   74.09
   0  -3   4 2485.45   64.69
   0  -3  -4 2487.05   67.89
   0   3   4 2450.15   65.59
   0  -3  -4 2363.16   70.79
   0   3  -4 2448.75   77.39
   0   3   4 2503.55   77.59
   0  -3   4 2483.45   77.19
   0  -3   4 2407.26   67.99
   0  -3  -4 2408.26   76.39
   0   3  -4 2447.35   74.49
   0   3   4 2488.45   71.49
   0  -3   4 2470.05   73.19
   0   3  -4 2479.55   72.99
   0  -3   4 2469.85   72.49
   0  -3   4 2355.06   73.09
   0   3   4 2334.07   71.09
   0  -3  -4 2459.75   72.49
   0   3  -4 2556.44   70.19
   0  -3  -4 2449.35   72.59
   1   3  -4   27.70    8.80
  -1  -3  -4   23.60    9.80
  -1   3   4   24.00    5.00
   1  -3   4    7.20    7.40
   1   3  -4   19.70   12.90
  -1  -3  -4   25.50    7.10
  -1   3   4   26.20   12.20
   1   3  -4   15.70    8.00
   1  -3   4   20.60    6.90
  -1   3   4   22.30    6.70
   1   3  -4   27.70    9.70
   1  -3   4   30.50   10.20
  -1  -3  -4   11.40   10.70
   1  -3   4   27.70    9.70
  -1   3   4   11.90   11.40
  -1  -3  -4   14.10    8.70
   1   3  -4   28.50    8.90
  -1   3   4   20.60    9.40
  -1  -3  -4   26.90    8.30
   1  -3   4   20.20   10.50
   1  -3   4   23.10    8.90
  -1   3  -4   23.10    8.10
   1   3   4   19.90    8.70
   1   3   4   19.10    4.90
  -1  -3   4   27.10    8.40
  -1  -3   4   17.40    7.90
  -1   3  -4   18.70    8.70
   1  -3  -4   29.80   10.00
   1  -3  -4   27.10   10.60
   1  -3  -4   30.10    8.40
   1  -3  -4   20.90   11.30
   1   3   4   32.90   12.30
  -1  -3   4   17.00    8.60
  -1  -3   4   29.90   10.40
  -1   3  -4    7.70    8.60
  -1   3  -4   15.40    9.00
   1  -3  -4   28.50    9.60
   1   3   4    9.20   10.40
   1   3   4   18.70    9.20
  -1   3  -4   32.20   11.00
  -1  -3   4   13.40    7.30
   1  -3  -4   27.70   11.50
  -1  -3   4   11.60   10.20
  -1  -3   4   27.30   10.10
  -1   3  -4   17.70    9.20
   1   3   4   14.10    8.50
   2  -3   4 2165.68   67.79
   2  -3   4 2097.59   69.09
  -2  -3  -4 2069.09   60.69
   2   3  -4 1960.30   78.39
  -2   3   4 2040.20   79.99
   2   3  -4 2033.70   72.29
  -2  -3  -4 2095.79   75.19
  -2  -3  -4 2056.19   57.49
   2  -3   4 2168.78   60.19
   2   3  -4 2013.00   66.49
  -2  -3  -4 2193.88   62.69
   2  -3   4 2099.19   60.29
  -2   3   4 2061.19   67.19
  -2   3   4 1956.60   60.99
   2  -3   4 2075.59   70.19
  -2  -3  -4 2088.69   69.29
   2   3  -4 2131.79   64.29
   2  -3   4 1962.60   71.59
   2  -3   4 2107.39   70.79
   2   3  -4 2087.09   64.39
  -2  -3  -4 2095.79   59.69
   2   3  -4 2028.90   66.99
  -2   3   4 2102.99   68.39
  -2  -3  -4 2064.79   61.29
   2  -3  -4 2091.29   63.59
   2   3   4 2018.70   70.39
  -2  -3   4 2142.49   59.09
   2  -3  -4 1834.72   70.59
   2   3   4 1952.00   74.29
  -2  -3   4 2079.29   57.49
  -2  -3   4 2002.10   68.39
   2  -3  -4 2102.29   67.39
  -2  -3   4 2040.30   73.39
  -2   3  -4 2159.28   63.89
  -2   3  -4 2106.09   70.99
   2  -3  -4 2051.89   63.09
  -2   3  -4 1953.60   76.59
   2  -3  -4 2113.59   68.19
   2   3   4 2094.69   64.29
  -2  -3   4 2116.49   67.19
   2   3   4 2087.19   68.59
   2   3   4 2105.39   70.79
   2   3   4 2073.79   75.49
   2   3   4 2091.19   55.19
  -2   3  -4 1813.52   71.39
   2  -3  -4 2140.39   67.19
  -2   3  -4 2122.89   57.49
  -2  -3   4 2127.89   75.79
   3  -3   4  145.39   23.60
   3   3  -4  117.79   21.70
   3  -3   4  136.09   21.10
  -3  -3  -4  131.79   20.20
   3  -3   4  185.88   19.90
   3  -3   4  129.49   21.20
  -3   3   4  129.39   23.60
   3   3  -4  121.79   20.30
   3  -3   4  119.49   18.80
  -3   3   4  159.98   22.70
  -3  -3  -4  126.49   19.20
   3  -3   4  124.79   20.40
  -3  -3  -4  141.39   35.40
   3   3  -4  146.49   21.70
  -3   3   4  184.98   33.40
   3   3  -4  111.79   19.50
  -3   3  -4  103.99   25.70
   3  -3  -4  144.19   18.60
   3   3   4  147.99   22.60
  -3   3  -4  163.68   25.70
   3  -3  -4  156.18   20.30
   3  -3  -4  136.09   22.70
   3  -3  -4  132.49   18.00
  -3   3  -4  155.28   26.10
   3  -3  -4  113.79   21.50
  -3  -3   4  115.49   18.20
  -3  -3   4  156.38   36.10
   3   3   4  171.18   34.40
  -3  -3   4  135.29   21.40
  -3  -3   4  111.79   24.70
  -3   3  -4  173.38   21.00
   3   3   4  128.89   18.60
   3  -3  -4  116.29   14.60
   3  -3  -4  150.38   19.10
   4   3  -4  744.53   39.20
  -4   3   4  773.22   65.29
  -4  -3  -4  734.13   61.49
   4  -3   4  742.13   38.50
   4  -3   4  745.33   50.59
  -4   3   4  693.13   55.89
   4   3  -4  732.83   61.29
   4   3  -4  822.12   40.90
   4  -3   4  808.42   39.00
  -4  -3  -4  746.23   50.09
   4  -3   4  714.73   41.20
  -4   3  -4  723.73   64.59
  -4   3  -4  792.02   56.09
   4  -3  -4  709.53   31.50
  -4  -3   4  840.82   62.19
  -4  -3   4  726.93   60.79
   4  -3  -4  759.02   37.60
   4  -3  -4  740.53   40.80
   4   3   4  689.73   62.09
   4  -3  -4  728.63   33.50
   0  -4   4    6.90    9.00
   0  -4  -4   -5.00   11.60
   0   4  -4    7.10   10.20
   0  -4  -4    7.70    8.70
   0   4   4   -1.30    9.40
   0   4   4    9.80    9.20
   0   4   4   40.70   15.60
   0   4  -4   -9.00    8.50
   0  -4   4  -16.40    9.50
   0  -4   4    0.70   11.00
   0  -4   4   10.90    8.70
   0  -4   4   -5.40   13.00
   0  -4  -4    2.70    8.00
   0  -4   4   -4.50   10.90
   0   4   4    7.90   11.00
   0  -4  -4   12.10    8.50
   0  -4   4   -5.20    8.50
   0   4   4   -4.60    6.80
   0   4  -4    8.40   11.10
   0   4  -4  -21.10   10.40
   0  -4  -4   -4.90   11.20
   0  -4  -4   -7.50   12.00
   1   4  -4  373.16   26.90
  -1  -4  -4  405.26   25.30
   1   4  -4  406.46   28.20
   1  -4   4  397.86   26.00
   1  -4   4  391.66   26.50
  -1   4   4  354.56   30.30
  -1  -4  -4  452.75   30.00
  -1  -4  -4  411.16   33.10
  -1  -4  -4  388.36   28.30
   1   4  -4  397.66   35.40
   1  -4   4  391.06   17.80
  -1   4   4  399.56   27.40
   1  -4   4  390.66   31.10
  -1   4   4  361.56   22.90
   1  -4   4  478.25   29.80
   1  -4   4  382.56   28.20
   1  -4   4  383.96   33.50
  -1  -4  -4  356.86   23.30
   1   4  -4  404.96   27.40
  -1   4  -4  421.46   24.30
  -1  -4   4  372.16   32.60
   1   4   4  437.66   33.90
   1  -4  -4  305.87   29.00
  -1  -4   4  363.76   25.90
   1  -4  -4  425.66   32.30
   1   4   4  436.36   20.70
   1  -4  -4  398.96   24.60
  -1  -4   4  431.76   27.10
   1   4   4  393.86   28.20
   1  -4  -4  355.76   24.80
  -1   4  -4  422.56   28.80
   1  -4  -4  392.16   32.30
   1  -4  -4  416.46   31.20
  -1  -4   4  378.16   23.90
  -1  -4   4  373.16   32.10
  -1   4  -4  395.36   30.70
  -1  -4   4  404.36   27.00
  -1  -4   4  404.16   29.80
  -1  -4   4  391.56   27.60
  -2  -4  -4  350.06   21.90
   2  -4   4  356.26   30.60
  -2  -4  -4  331.77   32.50
   2  -4   4  345.97   32.00
  -2   4   4  329.87   22.80
  -2  -4  -4  308.67   22.40
  -2  -4  -4  338.67   22.70
   2  -4   4  323.57   27.30
   2  -4   4  312.77   17.80
   2  -4   4  357.96   24.50
  -2   4   4  358.26   15.70
  -2  -4  -4  328.77   33.60
  -2   4   4  389.06   29.00
   2   4  -4  345.17   29.00
  -2  -4  -4  371.46   21.90
  -2  -4  -4  393.76   28.10
   2   4  -4  307.17   26.00
  -2   4   4  310.67   37.10
  -2   4   4  339.57   31.00
  -2   4  -4  364.06   36.70
   2  -4  -4  374.36   26.40
  -2  -4   4  284.27   27.30
  -2   4  -4  311.97   14.40
  -2  -4   4  356.46   35.30
  -2   4  -4  384.46   20.30
   2   4   4  336.97   14.90
   2   4   4  346.57   16.70
   2   4   4  374.66   35.40
  -2  -4   4  330.17   32.00
  -2   4  -4  314.67   26.10
   2  -4  -4  344.97   31.20
  -2   4  -4  357.16   30.10
  -2  -4   4  306.17   31.60
   2  -4  -4  388.96   31.80
  -2  -4   4  329.27   21.40
   2  -4  -4  306.47   28.90
   2  -4  -4  360.46   25.60
  -2  -4   4  307.07   23.60
   2   4   4  415.46   36.60
   3  -4   4  261.07   34.00
   3  -4   4  276.07   23.80
  -3   4   4  292.17   21.10
   3   4  -4  277.17   26.00
  -3  -4  -4  244.68   15.80
  -3  -4  -4  261.77   43.60
   3  -4   4  236.08   32.20
   3   4  -4  222.48   30.90
   3   4  -4  287.47   30.40
  -3   4   4  274.57   44.00
  -3   4   4  239.68   31.00
  -3  -4  -4  255.07   27.70
   3  -4   4  203.58   31.30
  -3  -4  -4  246.58   16.70
  -3  -4   4  255.37   39.80
   3  -4  -4  210.48   26.00
  -3   4  -4  254.07   37.80
   3  -4  -4  281.47   30.70
   3  -4  -4  214.18   26.20
  -3  -4   4  347.27   41.20
  -3   4  -4  317.27   37.30
   3  -4  -4  201.58   31.50
  -3  -4   4  184.48   25.30
   3   4   4  297.87   41.10
   4  -4   4   36.60   27.90
   4   4  -4   60.99   24.50
   4   4  -4   23.80   34.20
   4  -4   4   41.60   22.00
  -4   4   4   79.79   30.70
  -4   4   4   -0.60   31.20
  -4  -4  -4   37.90   34.30
  -4  -4   4   37.90   32.50
  -4  -4   4   74.69   39.10
  -4   4  -4   53.89   37.60
   4  -4  -4   49.60   19.60
   4  -4  -4   87.39   22.80
   4  -4  -4   45.40   20.40
   4   4   4   43.70   33.30
   0  -5   4  174.68   21.90
   0  -5  -4  210.58   23.40
   0  -5  -4  227.18   34.20
   0   5   4  209.68   26.40
   0   5   4  241.38   25.80
   0  -5   4  248.88   24.30
   0  -5  -4  206.98   32.00
   0  -5  -4  219.78   25.50
   0  -5   4  235.88   24.30
   0  -5   4  300.97   37.50
   0  -5   4  175.28   28.50
   0  -5   4  197.38   25.20
   0   5  -4  221.98   27.10
   0   5  -4  166.68   26.00
   0   5  -4  184.98   24.70
   0  -5  -4  198.08   25.20
   1   5  -4  337.87   31.60
  -1   5   4  367.86   38.10
   1  -5   4  378.56   29.90
   1  -5   4  361.36   39.40
   1  -5   4  430.96   41.70
   1  -5   4  341.87   34.80
   1   5  -4  340.67   28.80
   1   5  -4  338.17   31.00
   1  -5   4  378.36   29.90
  -1   5   4  342.27   22.00
  -1  -5  -4  320.87   32.40
  -1  -5  -4  340.87   38.20
  -1  -5  -4  328.07   30.50
  -1  -5  -4  325.07   28.10
   1  -5   4  328.87   18.00
  -1  -5   4  389.56   31.80
   1  -5  -4  366.76   28.80
  -1  -5   4  379.96   29.40
  -1   5  -4  352.76   32.60
   1  -5  -4  338.07   37.30
  -1   5  -4  417.16   35.70
  -1  -5   4  317.07   37.90
  -1   5  -4  383.26   30.70
   1  -5  -4  311.07   29.90
   1   5   4  367.56   33.40
   1   5   4  364.66   23.70
  -1  -5   4  424.76   33.90
  -1  -5   4  380.76   35.00
   1  -5  -4  264.87   39.60
  -2   5   4  156.78   19.20
   2   5  -4  189.58   28.30
  -2   5   4  141.59   23.60
   2  -5   4  184.18   38.20
  -2  -5  -4  195.88   23.80
  -2  -5  -4  165.68   19.30
  -2  -5  -4  210.18   34.70
   2  -5   4  203.78   31.10
  -2  -5  -4  204.78   26.00
   2  -5   4  185.68   27.40
  -2  -5  -4  145.39   21.60
  -2  -5  -4  215.18   33.20
   2   5  -4  149.19   24.20
  -2   5  -4  183.78   32.30
  -2  -5   4  162.48   30.60
   2   5   4  175.98   30.50
  -2   5  -4  183.68   28.90
  -2  -5   4  186.28   31.30
   2  -5  -4  205.78   34.10
   2  -5  -4  223.58   37.60
   2   5   4  170.58   14.00
   2  -5  -4  183.98   26.40
  -2   5  -4  188.68   20.30
  -2  -5   4  119.89   26.90
  -2   5  -4  162.98   15.20
  -2  -5   4  184.18   23.50
   2  -5  -4  141.79   27.50
   3  -5   4   45.20   27.20
   3  -5   4   74.49   25.10
   3   5  -4   86.09   21.70
   3   5  -4  127.39   27.20
  -3   5   4   74.99   36.40
  -3   5   4  126.99   26.00
   3  -5   4   97.59   26.30
  -3   5   4  133.99   20.60
  -3  -5  -4  114.99   37.00
   3   5   4  139.39   34.00
  -3  -5   4   59.29   29.30
   3  -5  -4  111.29   22.80
  -3  -5   4   76.79   32.60
  -3   5  -4  142.69   38.80
   3  -5  -4  136.79   26.00
   3  -5  -4  136.29   24.10
   0   6  -4   36.90   20.40
   0   6   4   59.89   19.90
   0   6  -4   49.99   18.90
   0  -6   4   -8.30   23.20
   0  -6   4   30.00   16.50
   0  -6  -4   42.70   28.60
   0  -6  -4   29.60   17.50
   0  -6   4   10.90   17.40
   0  -6   4   42.10   16.30
   0  -6  -4   28.70   22.50
   0  -6  -4   17.10   17.60
   1   6  -4   56.29   23.80
   1  -6   4   39.30   20.40
   1   6  -4   64.09   22.20
  -1   6   4   37.70   26.20
  -1  -6  -4   83.39   30.10
   1  -6   4   73.49   29.70
  -1  -6  -4   74.99   21.50
   1   6  -4   69.49   19.50
   1  -6   4   52.79   19.80
  -1  -6  -4  137.39   28.40
  -1   6  -4   90.79   23.00
  -1   6  -4   59.69   24.50
  -1  -6   4   93.89   23.10
   1  -6  -4   86.39   24.80
   1   6   4   79.79   17.40
  -1  -6   4   94.59   20.50
   1  -6  -4   92.79   22.30
   1  -6  -4  104.99   30.90
  -1  -6   4   71.69   28.70
  -1  -6   4   62.09   23.40
   2   6  -4  237.08   37.40
   2  -6   4  230.48   38.00
  -2   6   4  251.67   38.50
   2  -6   4  180.88   30.60
  -2   6   4  231.28   41.90
  -2  -6  -4  222.88   31.40
  -2  -6  -4  326.87   47.60
   2   6  -4  259.37   39.60
  -2   6   4  192.78   26.00
   2  -6   4  246.38   36.00
  -2  -6   4  255.57   37.50
   2  -6  -4  222.88   32.20
  -2   6  -4  259.57   22.70
   2  -6  -4  266.77   42.20
  -2   6  -4  271.27   45.70
   2   6   4  186.18   37.80
  -2  -6   4  254.17   35.40
   2  -6  -4  218.98   32.70
  -2  -6   4  213.18   35.80
   3  -6   4  166.88   35.90
   3   6  -4   56.59   25.40
  -3  -6  -4   79.79   40.10
   3   6  -4  103.09   34.10
  -3   6   4   56.69   40.30
   3  -6   4   66.09   29.30
   3  -6   4  134.59   30.40
   3  -6  -4   79.79   30.50
   3  -6  -4  140.09   29.70
  -3  -6   4  103.49   39.20
  -3   6  -4   30.60   43.10
  -3  -6   4  105.59   40.90
   3   6   4  111.19   39.30
   3  -6  -4  147.59   31.30
   0   7  -4  519.15   48.90
   0  -7   4  374.66   44.90
   0   7  -4  362.86   49.40
   0  -7  -4  359.46   44.40
   0   7   4  341.47   48.00
   0  -7   4  432.86   47.80
   0  -7   4  508.95   68.69
   0  -7   4  415.86   45.40
   0  -7  -4  532.75   66.09
   0  -7  -4  464.25   44.20
   1  -7   4   54.19   26.70
  -1   7   4   89.29   20.80
   1  -7   4   44.50   27.90
   1  -7   4   41.80   39.20
  -1   7   4   49.90   32.80
  -1  -7  -4  -15.00   28.70
  -1  -7  -4   78.89   27.00
   1   7  -4   35.70   26.20
  -1  -7   4   91.59   33.50
   1  -7  -4   25.10   28.40
   1  -7  -4   66.79   23.70
  -1  -7   4   27.00   27.10
   1  -7  -4   34.60   36.70
  -1   7  -4   45.80   31.40
   1  -7  -4   56.99   29.40
   1   7   4   65.89   32.10
   2  -7   4  271.37   49.70
  -2  -7  -4  272.27   51.39
   2  -7   4  381.06   48.30
  -2   7   4  251.17   49.60
   2  -7   4  374.36   50.79
  -2  -7  -4  357.06   45.60
  -2  -7  -4  345.27   41.90
   2  -7  -4  437.96   53.69
   2   7   4  250.07   53.09
  -2  -7   4  333.47   44.20
  -2   7  -4  311.17   54.19
   2  -7  -4  376.16   52.09
  -2  -7   4  255.67   46.10
   2  -7  -4  439.86   71.79
  -2  -7   4  231.48   41.70
   0   0  -5    7.80    3.70
   0   0   5    8.90    4.10
   0   0   5    3.40    3.70
   0   0  -5    5.10    4.20
   0   0  -5    5.20    3.90
   0   0   5   -0.90    2.80
   0   0  -5    5.60    3.60
   0   0  -5    0.10    3.10
   0   0   5   -1.60    2.90
   0   0   5    5.60    4.30
   0   0   5    2.10    3.40
   0   0  -5    3.60    3.00
   0   0  -5   -1.10    2.90
   0   0   5    0.20    3.70
  -1   0   5  490.75   16.90
   1   0   5  490.45   17.40
  -1   0  -5  490.95   15.30
  -1   0  -5  511.75   21.90
   1   0  -5  511.45   19.90
   1   0  -5  473.25   16.80
   1   0  -5  497.65   22.60
   1   0   5  508.15   19.40
   1   0   5  481.45   15.00
   1   0   5  484.85   19.40
   1   0  -5  496.45   15.20
  -1   0   5  482.95   20.40
   1   0  -5  482.25   20.70
   1   0  -5  481.55   17.50
   1   0   5  493.75   17.00
  -1   0  -5  479.85   16.50
   1   0   5  491.75   24.10
  -1   0   5  484.45   18.40
  -1   0   5  460.95   22.30
  -1   0   5  440.96   20.70
   1   0   5  535.65   22.60
  -1   0  -5  490.95   18.90
   1   0  -5  467.45   13.20
  -1   0   5  516.95   22.50
   1   0  -5  497.95   15.50
  -1   0  -5  490.45   20.20
   1   0  -5  413.16   25.60
   1   0   5  436.66   23.00
  -2   0  -5 4130.59  114.19
   2   0   5 4304.97  112.19
  -2   0   5 3963.20  117.89
   2   0   5 4120.99  103.49
   2   0  -5 4037.50  113.19
  -2   0  -5 4262.57  105.29
   2   0  -5 4085.29  118.99
  -2   0   5 4205.88  115.19
   2   0   5 4128.09  105.59
  -2   0  -5 4223.78  114.99
  -2   0  -5 4248.67  114.49
   2   0   5 4165.68  115.09
   2   0  -5 4134.69   99.79
   2   0  -5 4233.28   97.39
   2   0   5 4158.48  102.99
   2   0   5 4165.78  113.79
   2   0  -5 4164.08  106.69
   2   0  -5 4294.87  112.19
   2   0  -5 4198.38  117.49
   2   0   5 4038.10  116.49
   2   0   5 4125.99  102.89
  -2   0   5 4088.69  117.49
   2   0   5 4315.07  111.99
   2   0   5 4143.29  118.19
   2   0   5 4202.88  113.29
  -2   0   5 4004.00  112.09
   2   0  -5 4265.07  111.69
   2   0  -5 4172.98  112.89
   2   0  -5 4342.27  113.59
   3   0  -5  106.49   17.40
   3   0   5  101.19   17.40
   3   0  -5   76.79   19.20
  -3   0   5   85.49   18.40
   3   0   5  112.89   21.40
   3   0   5  107.99   12.30
  -3   0   5  154.48   23.30
   3   0  -5  132.09   24.30
   3   0  -5  105.29   22.20
   3   0  -5  120.49   16.30
  -3   0  -5   90.89   18.60
   3   0   5  146.29   21.90
   3   0  -5  106.89   17.80
   3   0   5   67.99   19.40
   3   0   5  108.99   12.20
   3   0   5  117.39   22.50
  -3   0   5  137.39   24.50
   3   0  -5  115.19   18.90
  -3   0   5   70.29   19.30
   3   0  -5  119.69   23.10
   3   0   5  129.19   23.40
   3   0   5  127.59   11.70
   3   0   5  108.99   16.90
  -3   0  -5  140.29   21.90
  -3   0  -5  110.59   11.40
   3   0  -5  118.69   20.50
   3   0   5  124.89   14.20
   4   0   5  654.23   35.80
   4   0   5  580.24   30.70
  -4   0  -5  625.04   47.00
   4   0  -5  560.04   38.50
   4   0   5  762.32   44.60
   4   0   5  648.04   48.80
  -4   0  -5  630.74   46.40
   4   0   5  763.02   42.60
   4   0  -5  606.34   40.80
   4   0  -5  694.13   38.00
  -4   0   5  605.94   45.60
  -4   0   5  552.84   54.29
   4   0  -5  580.34   40.10
   5   0  -5  111.99   28.60
  -5   0  -5  143.39   39.30
  -5   0  -5  114.69   35.00
   5   0   5   62.59   29.70
   5   0  -5  155.68   31.70
   5   0   5  119.69   34.90
   0   1   5  151.58    7.10
   0  -1   5  145.69    9.40
   0  -1  -5  157.58   12.00
   0  -1   5  153.38   10.00
   0  -1   5  151.28   12.00
   0   1   5  150.48   12.00
   0   1   5  157.78    9.80
   0   1  -5  153.78   11.80
   0   1  -5  155.48   10.90
   0   1   5  146.79    9.60
   0   1  -5  159.98   10.40
   0  -1  -5  154.28    8.00
   0  -1   5  143.59    9.80
   0   1  -5  156.28    9.30
   0   1   5  163.08    9.70
   0  -1  -5  156.28    9.90
   0   1  -5  173.38   10.40
   0   1  -5  158.08   10.70
   0  -1  -5  153.98    9.70
   0  -1   5  160.78   11.00
   0   1  -5  155.38    7.80
   0   1   5  140.99   10.20
   0  -1   5  146.89    9.60
   0  -1  -5  161.68   10.20
   1  -1   5    1.10    1.90
  -1  -1  -5    2.20    7.20
  -1  -1  -5   -4.90    5.30
  -1  -1  -5    1.90    4.80
   1  -1   5   -3.00    3.20
   1   1  -5    3.00    3.20
  -1   1   5    2.30    2.80
   1  -1   5    2.00    3.80
  -1  -1  -5    2.10    2.60
   1   1  -5   -1.20    3.30
   1   1  -5    5.30    4.30
  -1  -1  -5    3.60    3.20
   1   1  -5   -0.50    3.50
  -1   1   5    1.50    3.50
  -1   1   5    3.10    2.60
  -1  -1  -5    5.20    4.10
  -1   1   5    2.30    6.00
   1  -1   5   -2.40    3.80
   1   1  -5    5.60    4.30
   1   1  -5    6.00    7.20
  -1   1   5    2.00    5.20
  -1   1   5    0.00    4.10
   1  -1   5   -4.00    5.20
  -1  -1  -5    7.70    3.80
  -1   1   5   -2.10    3.50
   1  -1   5    5.10    5.70
  -1  -1  -5    1.40    1.10
   1   1  -5   -5.20    5.50
   1  -1   5    4.30    2.50
   1   1   5   -5.80   11.70
   1  -1  -5    2.20    3.70
   1  -1  -5   -2.30    2.90
  -1   1  -5    7.30    7.50
  -1   1  -5   -0.60    4.40
   1  -1  -5    2.10    2.50
  -1   1  -5    4.10    6.20
   1   1   5    4.40    3.40
  -1   1  -5   -0.50    4.90
  -1  -1   5    4.70    3.20
  -1   1  -5    4.20    4.10
  -1   1  -5    2.30    4.60
  -1  -1   5   -0.70    4.70
  -1  -1   5   -2.80    6.90
   1  -1  -5    2.90    6.40
   1  -1  -5    2.50    3.70
  -1  -1   5   -0.20    5.10
   1   1   5    8.30    6.20
  -1  -1   5    4.00    5.50
   1   1   5    3.80    4.20
   1   1   5   -3.20    5.60
  -1  -1   5    5.10    4.70
   1  -1  -5    2.50    4.50
  -1   1  -5   -1.20    4.80
  -1  -1   5    0.10    3.00
  -1  -1   5    2.60    2.80
   2  -1   5  122.49   12.10
  -2  -1  -5   91.99   13.90
  -2  -1  -5  101.79   12.00
   2  -1   5  113.29   12.70
   2  -1   5  106.59   13.50
  -2  -1  -5  102.69   11.70
   2   1  -5   97.69    7.90
   2   1  -5  103.89   16.50
   2  -1   5   90.89   15.10
  -2   1   5  104.09   12.80
  -2   1   5   85.19   15.50
   2   1  -5   96.19   16.90
   2  -1   5  142.09   16.20
   2   1  -5  104.79   13.50
   2   1  -5  111.69   13.90
   2  -1   5  112.19   13.10
   2  -1   5   73.49   14.60
  -2   1   5  135.89   14.70
   2   1  -5   86.99   14.40
   2   1  -5  120.89    8.40
   2  -1   5  114.19   10.20
   2  -1   5  115.99   15.70
   2   1  -5  116.59    9.70
   2   1  -5  113.59   10.80
  -2   1   5   91.39   15.10
  -2  -1  -5  130.69   17.30
   2   1  -5  117.79   18.20
   2  -1   5  129.59   16.90
  -2   1  -5   85.99   14.40
   2  -1  -5  103.79    9.10
  -2   1  -5   88.59   16.40
   2   1   5  109.29   12.00
  -2  -1   5  104.79    9.20
   2   1   5  101.39   17.30
   2  -1  -5   90.69    9.30
   2  -1  -5  115.09   15.50
   2  -1  -5   98.79   13.30
  -2   1  -5  154.88   19.80
   2  -1  -5   99.59   15.10
  -2  -1   5  116.29   16.80
  -2  -1   5  111.49   17.60
   2  -1  -5  113.89   18.40
  -2  -1   5   98.99   14.00
   2   1   5  129.09   20.80
   2   1   5  111.39    9.80
  -2  -1   5  118.89   10.00
   2  -1  -5  110.89    7.60
   2   1   5  125.29   11.20
   2   1   5  108.09   16.30
   2  -1  -5   84.19   11.50
   2   1   5  127.09   10.30
  -2   1  -5   97.19   11.90
  -2  -1   5  124.39   18.60
  -2   1  -5  115.49   16.10
   2  -1  -5   99.09   16.00
   2  -1  -5   87.89   15.80
   3  -1   5  987.80   48.60
  -3  -1  -5 1013.40   49.70
  -3  -1  -5 1016.90   42.70
   3  -1   5  938.31   34.40
   3   1  -5  901.01   50.29
  -3  -1  -5 1043.80   46.50
   3  -1   5  985.40   42.90
   3  -1   5 1036.10   34.90
   3   1  -5 1014.30   43.70
   3   1  -5  921.81   47.10
   3  -1   5 1032.20   44.70
  -3  -1  -5  985.80   33.50
   3   1  -5  992.80   46.10
   3   1  -5  981.70   29.90
   3  -1   5 1009.40   31.10
   3   1  -5  984.30   42.40
   3  -1   5 1048.60   39.90
  -3   1   5  978.30   52.79
   3  -1   5 1039.10   47.70
   3   1  -5 1004.60   29.40
   3  -1   5  983.10   46.70
  -3   1   5  991.00   50.39
  -3   1   5 1002.20   45.40
   3   1  -5 1034.00   48.30
   3  -1  -5  985.10   44.80
   3   1   5  992.90   28.30
   3  -1  -5  983.70   37.50
   3  -1  -5  978.20   46.10
   3   1   5  937.41   42.00
   3   1   5  990.20   48.70
   3   1   5 1058.89   35.10
   3   1   5 1022.40   41.70
   3   1   5 1043.80   35.90
   3   1   5 1028.10   28.70
   3  -1  -5  977.70   38.80
   3  -1  -5  944.31   46.70
   3  -1  -5 1014.40   28.50
   3   1   5 1058.09   51.79
  -3  -1   5 1070.69   55.29
  -3   1  -5  981.80   45.70
  -3   1  -5 1116.59   50.79
  -3   1  -5 1015.00   33.20
  -3  -1   5  956.90   48.80
   3  -1  -5 1003.90   48.10
   3   1   5  988.80   53.99
  -3   1  -5 1073.89   52.19
  -3  -1   5  997.30   50.69
   3  -1  -5  990.20   37.60
   3   1   5  997.70   34.10
   4  -1   5   45.10   18.10
   4  -1   5   23.00   24.50
   4   1  -5   50.69   22.20
   4   1  -5   63.99   15.70
   4  -1   5   54.19    8.20
  -4   1   5    0.70   22.40
  -4  -1  -5   64.89   19.30
   4   1  -5   35.40   16.90
   4   1  -5   13.30   20.30
   4  -1   5   50.59   17.60
   4  -1   5   31.40   20.20
  -4   1   5   50.79   26.30
   4  -1   5   62.69    9.80
  -4  -1  -5   20.20   25.60
  -4  -1   5   -6.60   25.40
   4   1   5   14.30   21.10
   4  -1  -5   51.09   15.00
   4   1   5   67.29   10.60
   4   1   5   16.50   21.20
   4  -1  -5   68.89   21.60
   4  -1  -5   41.00    8.10
  -4  -1   5   47.40   23.50
  -4   1  -5   43.80   22.40
   4  -1  -5   26.10   13.70
   4   1   5   61.19   23.20
  -4   1  -5   25.10   25.40
   4  -1  -5   55.89   17.50
   5  -1   5  442.16   52.79
   5  -1   5  467.95   49.60
  -5  -1  -5  390.66   49.90
   5   1  -5  328.57   44.70
   5  -1  -5  476.85   52.39
   5   1   5  508.85   56.49
   5   1   5  414.16   62.99
  -5   1  -5  436.66   62.69
  -5  -1   5  460.65   57.19
  -5   1  -5  369.56   54.59
   0  -2   5   15.10    5.00
   0   2   5   26.30    6.80
   0   2   5   18.90    6.30
   0  -2   5   21.60    6.60
   0   2  -5   20.30    6.80
   0   2  -5   25.10    7.00
   0   2  -5   17.60    5.40
   0   2  -5   18.20    6.10
   0   2  -5   17.10    6.10
   0  -2  -5   16.30    5.70
   0  -2   5   22.80    6.80
   0   2   5   26.20    8.60
   0   2   5   34.60    7.40
   0  -2  -5   17.90    5.50
   0  -2   5   29.30    8.40
   0  -2  -5   24.80    6.20
   0  -2   5   21.50    6.10
   0  -2  -5   24.10    7.50
   0   2  -5   29.00    5.30
   0  -2   5   26.30    5.00
   0  -2   5   22.10    5.90
   0   2   5   24.90    6.50
  -1  -2  -5  401.16   18.50
  -1   2   5  368.06   17.10
  -1   2   5  357.86   23.80
   1   2  -5  401.96   18.80
   1  -2   5  363.06   19.30
  -1   2   5  373.16   13.50
   1   2  -5  366.56   19.70
  -1  -2  -5  371.26   17.70
   1  -2   5  326.57   21.30
  -1  -2  -5  379.06   19.50
  -1   2   5  364.36   18.60
  -1  -2  -5  375.76   14.90
   1   2  -5  391.36   21.90
  -1   2   5  395.26   21.50
   1   2  -5  401.36   24.80
   1  -2   5  368.06   21.30
  -1  -2  -5  383.76   21.60
   1  -2   5  364.76   20.80
   1  -2   5  375.96   18.00
   1   2  -5  363.96   19.30
  -1  -2  -5  397.46   22.40
  -1   2   5  380.46   19.80
   1   2  -5  365.46   21.20
   1  -2   5  353.06   20.20
   1   2   5  379.86   18.80
  -1   2  -5  369.86   19.50
  -1   2  -5  395.26   22.20
   1   2   5  374.36   22.20
  -1  -2   5  391.86   21.40
   1   2   5  366.16   22.10
  -1  -2   5  364.86   17.10
  -1   2  -5  392.96   22.90
   1  -2  -5  346.97   17.80
  -1  -2   5  383.76   20.60
  -1   2  -5  352.86   20.90
  -1  -2   5  397.06   20.00
   1  -2  -5  367.56   16.40
  -1   2  -5  383.16   19.10
  -1  -2   5  346.97   17.80
  -1  -2   5  341.57   22.20
  -1   2  -5  356.86   20.40
  -1   2  -5  367.46   22.40
   1  -2  -5  346.67   20.30
  -1  -2   5  356.16   19.00
   1   2   5  411.86   21.10
   1  -2  -5  376.86   23.10
  -2  -2  -5   15.30   11.10
  -2   2   5   10.80    5.50
   2  -2   5   16.00   10.20
  -2  -2  -5    0.90    8.70
   2   2  -5   23.80    6.60
  -2  -2  -5   19.30    5.10
   2  -2   5   16.80    8.30
   2  -2   5    9.30    7.00
  -2   2   5    8.20    7.90
   2   2  -5   19.90    7.50
   2   2  -5   24.10   11.80
   2   2  -5   12.40    7.50
   2   2  -5    1.30   10.70
  -2  -2  -5   19.90    3.40
   2   2  -5    1.80   14.40
  -2   2   5   14.40   11.50
   2  -2   5   15.70   14.00
   2  -2   5    2.70    7.80
  -2   2   5    1.40    8.90
   2   2  -5   16.90    6.60
   2   2  -5   21.90   11.60
  -2  -2  -5   15.20    5.40
   2   2  -5   19.60    6.60
   2  -2   5   20.30    7.40
  -2  -2  -5   10.40    5.40
  -2  -2   5    7.30    9.70
   2   2   5   -6.30    8.90
  -2  -2   5    6.90    8.70
   2  -2  -5   17.90   11.20
   2   2   5   28.90   13.60
  -2  -2   5    3.40   11.20
   2  -2  -5   19.90    6.50
  -2   2  -5   23.20   10.20
  -2   2  -5   11.30    8.30
  -2  -2   5   23.80    7.90
  -2   2  -5   35.40   11.80
   2  -2  -5   22.60    9.10
   2  -2  -5   16.20   12.90
  -2  -2   5   23.20    8.10
   2   2   5    9.60    8.00
  -2   2  -5   20.30   12.10
   2   2   5   14.60    4.30
   2  -2  -5   14.00    6.30
   2   2   5    3.10   11.60
  -2   2  -5   -6.40   10.70
   2  -2  -5   13.50    7.70
  -2   2  -5   16.40    5.30
   2   2   5   10.40    7.40
   2  -2  -5   19.70    6.30
  -3   2   5   75.09   23.20
   3   2  -5   44.60   19.60
   3  -2   5   98.89   16.90
   3   2  -5  112.49   19.40
   3  -2   5   87.99   15.20
   3  -2   5   92.69   15.40
  -3   2   5  108.59   21.40
   3   2  -5   87.69   14.40
   3   2  -5   85.39   11.90
   3   2  -5   70.99   13.80
  -3   2   5   88.09   16.20
  -3  -2  -5   50.89   19.20
  -3  -2  -5   82.99   13.90
  -3  -2  -5   81.19   18.10
   3  -2   5   81.99   20.40
   3  -2   5  124.19   22.10
   3  -2   5   72.89   18.10
   3   2  -5   71.59   12.20
   3  -2  -5   83.49   19.80
  -3   2  -5   75.39   21.20
   3  -2  -5   82.69   12.30
  -3  -2   5   77.99   10.90
   3   2   5  108.89   21.90
   3  -2  -5   80.89   13.90
   3  -2  -5   92.99   15.20
   3   2   5  115.99   18.20
   3  -2  -5   67.99   10.70
  -3  -2   5   94.39   24.10
  -3   2  -5   70.49   19.60
   3   2   5   87.69   12.60
   3  -2  -5   83.79   15.00
   3  -2  -5   53.69   15.60
   3   2   5   71.49   12.70
   3  -2  -5   81.29   10.00
  -3  -2   5   51.89   18.40
  -3   2  -5  107.19   20.40
   3  -2  -5   65.59   11.00
   4  -2   5  335.77   22.90
   4   2  -5  331.87   45.20
  -4  -2  -5  298.67   44.80
   4  -2   5  259.57   38.80
   4   2  -5  296.07   29.40
  -4   2   5  278.07   42.80
  -4  -2  -5  273.17   39.40
   4   2  -5  336.57   23.90
  -4   2   5  358.16   44.20
   4  -2   5  319.67   31.50
   4   2  -5  282.57   44.90
   4  -2   5  306.97   24.40
  -4   2  -5  322.37   42.10
   4  -2  -5  382.36   29.50
  -4  -2   5  304.27   44.20
   4  -2  -5  326.37   24.90
   4  -2  -5  280.07   41.00
   4  -2  -5  295.97   22.30
  -4  -2   5  265.07   38.80
  -4   2  -5  405.86   49.10
   4  -2  -5  338.77   21.30
   4   2   5  362.06   46.70
   4   2   5  320.97   42.90
  -5  -2  -5  -19.20   42.10
   5   2  -5   52.49   40.70
   5  -2   5   71.19   29.50
  -5   2   5   31.50   41.80
  -5  -2  -5    3.70   40.20
  -5   2   5   12.80   41.30
   5  -2  -5   16.30   31.10
   5   2   5   18.00   36.50
  -5   2  -5   30.80   36.10
  -5  -2   5  124.99   44.70
  -5   2  -5   20.10   38.60
   5   2   5  -16.30   38.60
   0  -3  -5  781.52   32.30
   0   3   5  845.62   28.50
   0   3  -5  733.13   35.90
   0   3   5  799.82   32.30
   0   3   5  851.71   32.70
   0   3  -5  838.52   31.80
   0  -3   5  798.02   33.70
   0  -3   5  844.32   26.70
   0   3  -5  815.62   34.90
   0  -3  -5  840.22   33.60
   0   3   5  753.82   34.80
   0  -3   5  802.02   30.20
   0  -3   5  774.32   32.40
   0  -3  -5  808.72   37.20
   0   3  -5  699.53   35.00
   0  -3  -5  798.32   29.20
   0  -3   5  793.22   32.80
   0   3   5  850.11   39.20
   0   3  -5  822.52   35.30
   0  -3  -5  816.92   35.80
   0   3  -5  766.32   33.20
   0  -3   5  788.62   37.10
   0  -3   5  774.22   34.00
   1  -3   5  173.58   16.80
  -1  -3  -5  189.88   18.00
   1   3  -5  148.59   16.00
   1  -3   5  185.28   19.50
  -1   3   5  186.18   20.70
  -1  -3  -5  178.48   18.00
   1   3  -5  186.48   16.80
  -1  -3  -5  156.88   14.70
   1   3  -5  169.78   18.20
  -1   3   5  173.78    9.60
  -1   3   5  212.78   22.70
   1   3  -5  173.68   16.90
   1   3  -5  190.28   24.90
  -1  -3  -5  205.98   14.60
   1  -3   5  184.58   19.00
   1  -3   5  216.88   21.40
   1  -3   5  209.78   16.30
  -1   3   5  184.88   15.00
  -1  -3  -5  177.88   20.00
   1  -3   5  168.98   17.60
  -1   3   5  186.78   15.70
   1   3  -5  154.08   17.50
   1   3   5  188.18   10.30
  -1  -3   5  191.48   17.20
  -1  -3   5  186.08   19.80
  -1  -3   5  176.88   16.40
  -1  -3   5  184.28   16.30
  -1   3  -5  200.68   20.50
  -1  -3   5  187.38   19.60
  -1  -3   5  180.88   15.30
   1   3   5  206.98   20.10
   1  -3  -5  160.98   18.80
  -1   3  -5  182.18   19.30
   1   3   5  194.08   21.40
   1   3   5  209.18   17.80
   1   3   5  221.88   20.80
  -1  -3   5  188.38   21.10
   1  -3  -5  163.48   15.50
   1   3   5  179.48   18.00
   1  -3  -5  182.28   19.60
  -1   3  -5  178.98   20.00
  -1   3  -5  177.48   16.40
   1  -3  -5  177.78   19.00
   1  -3  -5  168.78   14.70
  -1  -3   5  175.38   17.10
   1  -3  -5  190.38   20.10
  -1   3  -5  176.48   20.10
  -1   3  -5  184.18   17.00
  -1   3  -5  181.28   16.80
  -2  -3  -5   93.29   16.50
   2   3  -5  158.38   25.80
   2   3  -5  107.89   18.60
  -2  -3  -5   80.89   10.40
  -2   3   5  101.59   18.00
   2  -3   5   87.69   14.50
   2   3  -5   65.99   13.20
  -2   3   5   60.89   18.40
  -2   3   5  116.39   14.40
  -2  -3  -5  116.29   15.20
   2   3  -5   85.09   22.10
   2  -3   5   95.99   17.60
  -2  -3  -5   89.79   13.20
  -2  -3  -5  118.19   21.10
   2  -3   5   57.39   20.50
   2   3  -5   85.29   14.60
   2  -3   5  125.29   14.70
   2  -3   5   81.69   14.00
  -2  -3  -5   79.09   13.30
  -2  -3  -5  101.59   15.20
   2  -3   5   92.59   17.10
  -2   3   5   87.29   16.30
  -2  -3   5  122.69   20.10
   2  -3  -5   71.89   15.50
   2  -3  -5   88.59   14.30
  -2  -3   5   95.69   12.30
  -2   3  -5   87.89   14.70
  -2  -3   5   91.89   18.00
   2   3   5  112.99   17.80
  -2   3  -5   89.89   10.20
   2  -3  -5   96.39   20.40
   2  -3  -5   81.79   13.80
   2  -3  -5   65.19   14.40
   2   3   5   92.19    6.70
   2   3   5   97.99   18.10
  -2  -3   5   89.69   17.20
   2   3   5   81.29   19.10
  -2  -3   5  126.89   14.00
   2   3   5   66.89   22.00
   2  -3  -5  129.89   18.50
  -2  -3   5   86.79   11.50
  -2   3  -5  103.89   17.80
  -2  -3   5   85.49   19.10
  -2   3  -5  110.79   19.50
  -2   3  -5   89.29   14.50
  -2   3  -5   90.69   17.30
   2   3   5   91.59   15.10
   3   3  -5  561.54   31.20
   3  -3   5  543.45   37.40
  -3  -3  -5  544.75   33.40
   3  -3   5  480.65   33.80
   3  -3   5  566.24   29.60
   3  -3   5  496.15   35.70
   3   3  -5  475.35   41.60
  -3   3   5  580.64   41.00
   3  -3   5  501.45   33.90
  -3  -3  -5  564.84   36.60
  -3   3   5  494.55   35.60
  -3   3   5  470.75   43.50
   3  -3   5  484.85   41.70
   3   3  -5  530.75   30.90
  -3   3   5  536.95   28.20
   3  -3  -5  491.35   25.70
   3   3   5  497.15   31.50
   3  -3  -5  514.65   28.60
  -3   3  -5  541.05   35.90
  -3   3  -5  563.94   57.99
   3  -3  -5  504.25   31.90
   3  -3  -5  556.34   30.20
  -3   3  -5  551.44   46.50
   3  -3  -5  506.15   28.10
   3  -3  -5  485.35   39.60
   3   3   5  546.35   35.90
  -3  -3   5  515.65   45.20
   3  -3  -5  557.94   34.10
  -3  -3   5  471.95   31.30
   3   3   5  525.05   23.00
  -3  -3   5  540.95   36.50
  -4   3   5  102.49   34.20
   4  -3   5   59.69   18.30
   4   3  -5   48.90   16.70
  -4  -3  -5   42.20   26.00
   4   3  -5   67.59   16.60
  -4   3   5   34.10   25.40
   4  -3   5   71.49   25.00
   4  -3   5   53.49   16.60
   4   3  -5  124.49   30.80
  -4  -3  -5   54.59   30.70
  -4  -3   5   46.60   32.70
   4  -3  -5   56.49   12.90
  -4   3  -5   51.29   27.40
   4   3   5   75.29   33.40
   4  -3  -5   74.89   32.40
   4  -3  -5   83.09   17.10
  -4   3  -5  114.49   35.30
   4  -3  -5   93.69   17.80
   4  -3  -5   82.59   14.00
  -4  -3   5   59.39   26.20
   0  -4   5  147.79   16.00
   0  -4  -5  154.38   21.60
   0   4   5  113.09   19.70
   0  -4   5  174.08   18.80
   0   4   5  134.99   20.50
   0   4   5  147.19   18.90
   0   4   5  142.79   15.30
   0  -4   5  169.08   25.50
   0  -4  -5  124.79   21.80
   0  -4  -5  118.59   14.90
   0   4  -5  162.18   19.30
   0   4  -5  129.89   20.20
   0  -4   5  131.69   19.90
   0  -4  -5  176.78   22.20
   0  -4   5  143.19   17.90
   0  -4   5  168.38   22.30
   0   4   5  174.68   20.00
   0  -4  -5  163.28   16.20
   0   4  -5  148.69   19.90
   0  -4   5  131.89   15.10
   0  -4   5  144.69   20.80
   0   4  -5  140.39   20.40
  -1  -4  -5  151.68   21.20
   1   4  -5  146.39   23.10
   1  -4   5  169.58   13.80
  -1  -4  -5  148.99   18.20
   1  -4   5  185.78   20.10
   1  -4   5  160.58   24.90
  -1  -4  -5  184.78   26.80
   1   4  -5  172.48   20.40
  -1  -4  -5  155.38   22.10
  -1   4   5  128.69   20.80
   1  -4   5  163.68   23.20
  -1   4   5  159.38   16.50
   1  -4   5  130.69   21.30
   1   4  -5  179.48   31.40
   1   4  -5  180.78   21.30
  -1  -4  -5  171.88   19.20
  -1   4   5  170.38   24.40
   1  -4   5  163.28   24.70
  -1   4   5  152.28   23.20
   1   4  -5  174.98   20.90
  -1   4   5  172.98   14.30
   1  -4   5  184.58   19.60
   1   4   5  201.48   14.30
  -1  -4   5  186.18   21.00
  -1  -4   5  124.09   20.40
  -1   4  -5  168.88   22.20
   1  -4  -5  231.68   40.10
  -1  -4   5  156.08   20.10
  -1  -4   5  184.18   25.40
   1   4   5  170.98   23.20
  -1   4  -5  154.08   20.40
  -1  -4   5  170.28   24.20
   1  -4  -5  173.08   18.90
   1  -4  -5  177.68   22.50
   1  -4  -5  145.39   18.00
   1  -4  -5  120.29   20.90
  -1  -4   5  168.48   21.50
   1   4   5  169.08   24.40
   1  -4  -5  171.68   24.70
   1  -4  -5  174.68   24.10
   1   4   5  165.08   24.20
  -1  -4   5  135.19   22.10
  -1  -4   5  164.48   17.40
  -1   4  -5  175.08   19.70
   2  -4   5  572.24   29.20
  -2  -4  -5  523.45   29.00
  -2  -4  -5  586.54   27.00
  -2   4   5  582.74   35.60
   2   4  -5  555.24   35.20
   2  -4   5  571.04   24.50
  -2   4   5  537.75   44.10
  -2  -4  -5  561.84   29.30
  -2   4   5  517.55   28.70
   2  -4   5  517.45   37.50
  -2  -4  -5  572.24   34.30
   2  -4   5  553.24   35.50
  -2   4   5  532.55   36.50
   2  -4   5  558.54   38.30
  -2  -4  -5  574.64   39.80
  -2  -4  -5  621.74   41.90
  -2  -4  -5  541.85   27.00
   2   4  -5  548.95   32.60
  -2  -4   5  514.25   34.40
   2  -4  -5  528.15   37.60
  -2   4  -5  570.04   22.90
  -2   4  -5  538.85   41.70
  -2   4  -5  579.74   36.80
  -2  -4   5  533.75   29.00
   2  -4  -5  567.04   32.80
  -2   4  -5  520.95   30.80
  -2  -4   5  621.14   38.50
   2  -4  -5  580.74   37.70
   2   4   5  549.74   40.30
  -2   4  -5  512.25   31.70
  -2  -4   5  505.05   39.50
  -2  -4   5  585.14   27.60
  -2  -4   5  655.13   43.60
   2   4   5  591.64   41.60
   2  -4  -5  542.55   29.80
   2  -4  -5  659.03   45.10
   3   4  -5   -0.40   24.60
  -3   4   5   35.40   12.20
   3  -4   5   40.40   23.60
   3  -4   5   73.39   21.40
   3   4  -5   30.40   14.10
  -3  -4  -5   57.89   17.10
  -3   4   5   13.40   24.40
  -3   4   5   41.90   22.20
  -3  -4  -5   49.99   26.80
   3  -4   5   72.69   14.80
   3   4  -5   53.89   17.90
   3  -4   5   72.09   19.30
   3  -4  -5   74.19   14.40
   3   4   5   58.59   26.60
  -3  -4   5  101.69   28.50
   3  -4  -5   45.90   17.50
  -3  -4   5   44.90   23.00
   3  -4  -5   78.79   25.90
   3  -4  -5   70.99   17.10
   3  -4  -5   64.19   19.30
  -3   4  -5   46.00   28.40
  -3   4  -5   42.90   21.90
  -3  -4   5   37.20   24.60
  -4   4   5  331.57   46.00
   4  -4   5  332.47   49.60
   4   4  -5  437.26   41.30
   4  -4   5  485.55   42.00
  -4   4   5  398.46   64.99
   4   4  -5  414.76   57.79
  -4  -4  -5  489.85   65.29
   4  -4  -5  351.56   36.60
   4   4   5  541.15   60.79
  -4  -4   5  536.35   65.69
  -4  -4   5  352.46   58.89
   4  -4  -5  452.95   37.00
  -4   4  -5  365.36   53.79
  -4   4  -5  591.64   70.79
   4  -4  -5  442.36   42.20
   0  -5   5   94.59   25.40
   0  -5  -5  107.29   19.50
   0   5  -5  103.09   21.00
   0   5  -5  109.29   18.40
   0  -5  -5  106.39   19.80
   0  -5   5  114.39   20.00
   0  -5   5  128.69   25.30
   0  -5   5  104.49   20.50
   0   5   5  112.29   24.10
   0   5   5  139.49   23.50
   0  -5  -5   94.99   17.30
   0  -5   5   90.59   16.90
   0  -5   5  104.29   14.40
   0  -5  -5   86.09   20.80
   0   5  -5  101.69   20.90
   0  -5  -5   75.29   22.40
   0   5  -5   83.39   17.80
  -1  -5  -5   55.19   18.10
  -1   5   5   20.70   10.70
  -1  -5  -5   63.59   22.20
   1  -5   5   24.00   25.60
   1  -5   5   36.90   14.90
   1  -5   5   36.20   15.30
   1  -5   5   30.30   10.60
   1  -5   5   11.50   19.00
  -1  -5  -5   39.90   14.10
  -1   5   5   33.30   20.30
  -1   5   5   65.59   11.70
   1   5  -5   39.10   15.40
   1   5  -5   16.40   13.40
   1   5  -5   12.00   14.90
   1  -5   5   14.30   18.50
  -1  -5  -5   26.80   14.20
  -1  -5   5   42.70   16.40
   1  -5  -5   48.40   20.90
  -1  -5   5   31.20   19.20
  -1   5  -5   36.20   15.10
  -1   5  -5   47.60   17.20
   1   5   5   70.89   26.10
  -1  -5   5   37.50   15.70
   1   5   5   46.50   19.00
  -1   5  -5   27.00   17.50
  -1  -5   5   18.50   19.80
   1   5   5   47.60   11.70
   1  -5  -5   45.10   16.40
   1  -5  -5   51.39   21.50
   1  -5  -5   42.40   14.30
  -1  -5   5   43.90   14.50
   2   5  -5   51.39   18.80
  -2   5   5   42.10   12.70
  -2  -5  -5   78.89   24.20
  -2  -5  -5   66.09   24.20
  -2   5   5   56.89   19.20
   2   5  -5   49.00   16.60
  -2  -5  -5   72.19   16.20
   2  -5   5   52.69   30.70
   2  -5   5   35.00   18.90
  -2  -5  -5   43.90   12.80
  -2  -5  -5   94.99   17.80
   2  -5   5   33.30   22.40
   2  -5   5   29.20   18.50
  -2  -5  -5   38.30   14.10
   2  -5  -5   39.20   17.90
  -2   5  -5   31.10   12.60
  -2  -5   5   15.80   21.00
   2  -5  -5   46.90   26.00
  -2  -5   5   82.69   25.80
  -2   5  -5   52.09    8.70
  -2  -5   5   56.99   15.70
   2   5   5   60.09   10.40
  -2  -5   5   63.09   26.10
   2   5   5   75.29   24.00
  -2   5  -5   67.99   18.80
   2  -5  -5   52.89   17.70
   2   5   5   80.79   28.80
  -2   5  -5   46.70   22.80
   2  -5  -5   43.70   21.70
   3   5  -5  563.14   47.20
  -3   5   5  543.65   62.69
   3  -5   5  551.34   44.60
   3   5  -5  548.85   39.90
  -3   5   5  582.64   51.99
   3  -5   5  613.54   48.30
  -3   5   5  587.64   32.50
   3  -5   5  443.06   49.20
  -3  -5  -5  741.23   61.89
  -3  -5   5  554.54   57.69
   3  -5  -5  598.14   46.70
   3   5   5  608.54   60.69
  -3   5  -5  534.65   62.29
   3  -5  -5  600.44   39.80
   3  -5  -5  530.95   39.60
  -3  -5   5  724.03   62.79
   0  -6   5   14.50   17.10
   0  -6   5   24.70   17.60
   0   6  -5  -33.00   18.10
   0  -6   5    6.60   26.60
   0   6   5   -7.80   16.70
   0  -6  -5   20.00   26.10
   0  -6  -5    3.20   17.40
   0  -6  -5   18.00   16.50
   0   6  -5   12.90   18.80
   0  -6  -5  -39.00   34.40
   1   6  -5  138.89   25.60
   1   6  -5  184.48   30.50
  -1  -6  -5  182.78   29.70
  -1  -6  -5  173.08   27.10
  -1  -6  -5  220.68   40.30
  -1   6   5  185.58   25.50
   1  -6   5  189.08   28.80
   1  -6   5  186.48   32.00
  -1   6   5  187.48   34.90
   1  -6   5  144.79   35.10
  -1  -6   5  150.28   24.40
   1   6   5  193.78   26.50
   1   6   5  187.88   31.70
   1  -6  -5  226.58   34.60
  -1  -6   5  178.38   28.50
  -1   6  -5  159.18   29.80
   1  -6  -5  240.48   38.90
  -1  -6   5  210.58   33.40
   1  -6  -5  209.38   31.50
  -1   6  -5  129.59   26.90
  -1  -6   5  138.69   34.60
   2  -6   5  273.17   42.80
   2  -6   5  214.18   32.40
   2  -6   5  224.68   35.90
  -2  -6  -5  277.87   31.60
  -2   6   5  299.37   40.90
   2   6  -5  280.87   41.70
  -2   6   5  253.07   43.80
  -2   6   5  196.88   28.10
   2   6  -5  299.37   38.20
  -2  -6  -5  270.97   42.60
  -2  -6  -5  204.48   33.20
  -2  -6   5  232.48   38.20
   2   6   5  336.67   56.09
   2  -6  -5  257.67   36.40
  -2  -6   5  237.28   36.70
   2  -6  -5  304.17   44.30
  -2   6  -5  390.86   52.59
  -2  -6   5  274.37   40.90
   2  -6  -5  276.67   36.20
  -2   6  -5  260.07   21.50
   3  -6   5   -1.50   28.70
   3  -6   5    0.00   27.50
   3   6  -5    1.40   28.00
   3  -6   5  -28.70   27.30
  -3  -6  -5   11.90   37.70
  -3   6   5  -13.40   37.10
   3   6  -5  -29.80   23.70
  -3  -6   5  -37.50   34.80
   3  -6  -5   35.90   27.20
   3  -6  -5   53.29   25.30
   3  -6  -5   24.70   27.10
  -3  -6   5   16.00   40.40
  -3   6  -5  -41.90   45.10
   3   6   5    9.30   35.60
   0  -7  -5  305.07   41.40
   0  -7   5  252.57   42.80
   0  -7   5  191.98   33.30
   0  -7  -5  273.47   47.50
   0  -7   5  178.78   42.70
   0  -7  -5  228.98   33.40
   0   7  -5  180.68   35.10
   0   7   5  177.68   33.00
   0   7  -5  285.27   44.10
   0   7   5  327.47   46.30
   0  -7   5  222.88   34.30
   1  -7   5   25.40   26.40
   1  -7   5   54.79   26.70
   1   7  -5   66.59   28.60
   1   7  -5   18.40   22.80
  -1  -7  -5   45.40   31.90
  -1   7   5   53.69   30.70
  -1   7   5  -12.90   19.70
  -1  -7  -5   70.99   27.30
   1  -7   5   48.90   35.40
  -1   7  -5   15.90   32.50
   1  -7  -5  -29.20   22.40
   1   7   5   40.50   32.50
  -1  -7   5   12.00   25.80
  -1  -7   5    4.00   26.10
  -1  -7   5   32.70   25.50
   1  -7  -5  -55.89   27.00
   1  -7  -5   45.40   37.20
  -2   7   5  114.89   24.70
   2  -7   5   78.09   32.50
  -2  -7  -5  147.19   28.50
  -2  -7  -5   72.69   43.40
  -2   7   5  153.68   47.60
   2  -7   5  142.79   43.10
   2  -7   5   94.29   31.90
  -2  -7  -5  101.69   32.40
   2   7  -5   87.99   34.40
  -2  -7   5   92.49   29.00
   2  -7  -5  132.99   35.30
  -2  -7   5   85.99   37.30
   2   7   5   76.29   47.30
   2  -7  -5  215.78   50.59
   2  -7  -5  170.08   33.80
  -2  -7   5  107.09   36.10
  -2   7  -5  112.49   48.30
   0   0   6   19.90    4.80
   0   0  -6   23.60    6.10
   0   0   6   21.20    6.30
   0   0  -6   17.70    5.10
   0   0   6   20.10    5.40
   0   0   6   15.90    4.50
   0   0  -6   13.30    4.60
   0   0   6   14.30    4.80
   0   0   6   14.20    4.40
   0   0  -6   18.90    4.60
   0   0  -6   14.80    4.60
   0   0  -6   20.00    4.70
   0   0   6   14.40    4.80
   0   0  -6   14.90    4.40
   1   0  -6  870.51   30.60
  -1   0  -6  831.82   32.00
   1   0  -6  760.62   34.80
   1   0  -6  806.62   20.90
  -1   0  -6  831.92   28.90
  -1   0   6  858.61   32.50
   1   0  -6  829.42   28.00
   1   0  -6  858.31   24.50
   1   0   6  865.41   33.70
   1   0   6  881.81   27.30
  -1   0   6  809.72   32.70
   1   0   6  858.81   24.00
   1   0  -6  850.61   26.70
   1   0  -6  872.01   33.30
  -1   0  -6  878.51   27.90
   1   0   6  832.22   29.80
   1   0  -6  851.61   25.70
  -1   0  -6  861.21   26.40
  -1   0  -6  847.52   24.20
   1   0  -6  839.62   25.60
   1   0  -6  882.71   25.20
  -1   0   6  807.32   26.40
  -1   0   6  844.82   22.50
  -1   0   6  812.52   30.70
   1   0   6  864.31   26.30
   1   0   6  880.31   30.10
   1   0  -6  832.62   31.00
   2   0   6  760.42   34.80
  -2   0   6  702.03   34.40
   2   0  -6  736.33   33.40
   2   0   6  764.02   32.10
   2   0  -6  739.83   37.00
   2   0  -6  787.62   31.80
   2   0   6  776.72   33.00
  -2   0   6  743.73   21.30
   2   0   6  741.23   35.90
  -2   0  -6  758.72   27.80
  -2   0   6  697.83   36.10
   2   0   6  781.12   31.00
  -2   0  -6  761.72   32.50
   2   0  -6  727.73   32.70
   2   0   6  749.92   23.80
   2   0  -6  766.32   32.00
   2   0  -6  754.92   38.00
  -2   0   6  721.43   31.30
  -2   0  -6  746.33   34.00
   2   0   6  747.73   25.60
   2   0   6  789.22   28.30
  -2   0  -6  730.93   32.80
   2   0   6  787.92   37.30
   2   0  -6  759.12   26.10
   2   0  -6  744.93   20.90
   2   0   6  745.93   25.10
   2   0   6  771.32   33.30
   2   0  -6  714.83   32.00
   2   0  -6  729.73   22.90
   3   0  -6  939.91   24.50
   3   0   6  905.01   31.40
   3   0   6  820.52   44.10
  -3   0  -6  947.61   49.00
  -3   0   6  957.10   47.30
   3   0  -6  895.51   36.20
   3   0   6  969.50   42.60
   3   0   6  938.31   48.60
   3   0  -6  914.51   46.40
   3   0   6  932.21   47.80
  -3   0   6  949.80   44.90
  -3   0  -6  927.41   46.10
   3   0  -6  857.61   42.90
   3   0   6  889.31   43.00
   3   0   6  967.60   31.90
  -3   0  -6  920.01   31.30
   3   0  -6  924.71   39.70
   3   0  -6  939.01   45.20
   3   0   6  911.71   48.90
  -3   0   6  958.30   49.90
   3   0   6  938.81   32.60
   3   0   6  924.21   33.10
  -3   0  -6  956.30   46.30
   3   0  -6  920.81   42.80
   3   0  -6  941.31   54.99
   3   0  -6  906.51   42.30
   4   0   6   71.59   21.60
   4   0   6   76.89    9.00
  -4   0  -6   66.19   20.20
  -4   0  -6   95.89   25.40
   4   0  -6   73.39    8.00
   4   0  -6   77.49   16.80
  -4   0   6   81.59   28.60
  -4   0   6   76.79   24.30
   4   0  -6   69.29   19.70
   4   0  -6   87.29    8.40
   4   0   6   64.69   12.20
   4   0  -6   90.09   19.40
  -4   0   6   35.20   30.00
   4   0   6   70.49   23.40
   4   0  -6   54.69   18.10
  -5   0  -6   33.20   38.80
   5   0   6  115.69   33.30
  -5   0  -6   66.39   31.60
   5   0  -6  123.39   29.80
   5   0   6   95.59   32.00
   0  -1   6 1675.83   49.20
   0  -1  -6 1663.33   42.60
   0   1  -6 1691.53   44.90
   0   1   6 1622.24   45.30
   0  -1  -6 1669.13   45.70
   0   1  -6 1686.73   49.20
   0  -1  -6 1588.64   46.70
   0  -1   6 1678.33   45.70
   0   1  -6 1670.03   47.40
   0   1  -6 1681.53   47.70
   0  -1  -6 1649.44   46.10
   0   1  -6 1738.43   48.20
   0   1   6 1709.03   46.10
   0  -1   6 1713.63   47.90
   0   1   6 1634.24   49.10
   0  -1  -6 1621.04   48.70
   0   1   6 1643.64   42.10
   0  -1   6 1705.83   46.50
   0   1   6 1588.74   47.20
   0  -1   6 1655.93   46.60
   0   1  -6 1620.14   47.20
   0  -1  -6 1740.83   46.50
   0   1  -6 1608.64   42.90
   1  -1   6 1498.15   46.30
   1  -1   6 1508.25   49.20
   1  -1   6 1519.05   37.90
   1   1  -6 1514.65   44.60
   1   1  -6 1559.54   43.10
   1  -1   6 1550.04   44.60
   1  -1   6 1566.64   44.40
   1  -1   6 1452.15   45.10
  -1   1   6 1462.55   45.70
  -1  -1  -6 1522.95   36.70
  -1  -1  -6 1548.35   46.30
   1   1  -6 1503.75   49.50
  -1   1   6 1469.85   50.39
   1  -1   6 1541.55   39.20
  -1  -1  -6 1502.15   42.60
  -1   1   6 1460.65   42.50
   1   1  -6 1488.35   44.90
   1   1  -6 1514.55   41.50
  -1   1   6 1555.74   44.50
   1   1  -6 1530.65   46.20
   1   1  -6 1520.15   46.60
  -1  -1  -6 1541.05   47.90
  -1   1   6 1421.66   47.00
  -1  -1  -6 1480.65   38.30
  -1  -1  -6 1540.65   43.50
   1   1  -6 1566.14   50.49
  -1   1   6 1547.75   40.30
   1  -1  -6 1544.45   45.50
   1   1   6 1592.04   47.10
   1  -1  -6 1558.64   51.29
   1   1   6 1373.56   49.40
   1   1   6 1547.75   44.30
  -1  -1   6 1502.45   42.10
  -1   1  -6 1439.66   46.20
  -1  -1   6 1526.05   40.40
  -1  -1   6 1415.16   44.50
   1  -1  -6 1509.45   38.20
   1  -1  -6 1496.05   41.60
  -1   1  -6 1446.16   44.80
  -1   1  -6 1500.05   43.90
  -1  -1   6 1393.06   46.90
  -1   1  -6 1483.85   46.30
   1  -1  -6 1500.55   39.60
  -1  -1   6 1513.55   47.40
   1   1   6 1502.35   48.50
  -1  -1   6 1524.35   50.59
   1  -1  -6 1433.46   43.80
   1  -1  -6 1517.55   37.00
  -1  -1   6 1543.75   40.60
  -1   1  -6 1544.15   46.30
   1   1   6 1577.44   43.70
  -1   1  -6 1521.05   49.70
  -1  -1   6 1490.05   44.20
  -1  -1   6 1531.35   41.10
  -1   1  -6 1460.65   38.10
   2   1  -6   38.20    5.90
   2  -1   6   35.40    9.20
  -2  -1  -6   41.80    5.10
  -2  -1  -6   44.60    4.80
  -2  -1  -6   33.80   11.00
  -2  -1  -6   46.20    9.00
   2  -1   6   28.80    7.50
  -2  -1  -6   23.60    9.10
  -2   1   6   52.49   13.50
  -2   1   6   43.20   10.90
  -2   1   6   59.69    8.70
   2   1  -6   41.30   12.80
   2   1  -6   31.30   12.20
  -2  -1  -6   49.60    9.20
   2  -1   6   31.10   11.10
  -2   1   6   33.50    8.70
   2  -1   6   40.30   12.10
   2  -1   6   41.80   10.20
   2  -1   6   30.80    8.30
   2  -1   6   44.80    9.40
   2   1  -6   31.00   13.20
   2   1  -6   44.70    6.90
   2   1  -6   44.60    6.30
   2   1  -6   44.30    7.20
   2   1  -6   51.39   12.20
   2  -1   6   31.90   12.30
  -2  -1  -6   48.40   11.80
   2   1  -6   33.20    8.60
   2  -1   6   33.10    4.20
   2   1  -6   47.00   13.20
  -2   1   6   34.60   10.20
   2   1  -6   39.70    9.20
   2   1   6   45.60    8.40
  -2  -1   6   36.10   12.90
   2   1   6   25.50    8.10
  -2  -1   6   29.90   11.00
  -2   1  -6   49.80   11.70
   2  -1  -6   48.00    6.70
   2  -1  -6   36.10    7.50
  -2   1  -6   42.80    8.50
  -2  -1   6   33.70   11.00
   2  -1  -6   38.20    6.40
   2   1   6   18.10   14.00
  -2  -1   6   52.69    7.70
   2  -1  -6   40.20    5.80
   2  -1  -6   30.60   10.10
   2  -1  -6   47.70    7.40
   2  -1  -6   46.70   10.50
   2   1   6   47.70    7.80
  -2  -1   6   38.00   11.30
  -2   1  -6   45.80   10.10
   2  -1  -6   43.60   11.00
  -2   1  -6   56.79   12.50
   2  -1  -6   24.90   12.30
  -2   1  -6   40.30    9.90
   2   1   6   43.50   13.00
   2   1   6   43.10    7.20
   2  -1  -6   53.89   10.30
   2  -1  -6   60.49   12.80
   3   1  -6   43.40   12.80
  -3  -1  -6   58.29   17.50
  -3  -1  -6   47.70   12.50
   3  -1   6   49.60   16.80
  -3   1   6   47.90   15.90
  -3  -1  -6   50.49   10.20
   3  -1   6   26.90    6.50
   3  -1   6   34.30   10.00
   3   1  -6   63.39   15.50
   3  -1   6   57.79   12.10
  -3  -1  -6   41.30   14.80
   3   1  -6   42.80   16.70
   3   1  -6   58.59   18.80
   3  -1   6   56.69   15.10
   3  -1   6   37.70   16.80
   3   1  -6   37.70    6.60
   3   1  -6   45.10   15.00
   3  -1   6   58.59   13.40
  -3   1   6   44.90   18.90
   3  -1   6   44.10   14.80
  -3   1   6   38.30   18.60
   3  -1   6   32.90    9.10
  -3  -1   6   47.60   18.30
   3  -1  -6   41.30    4.50
   3  -1  -6   38.80   10.50
  -3   1  -6   42.50    9.60
   3   1   6   48.40   12.10
  -3  -1   6   62.19   17.70
   3  -1  -6   43.80    5.90
   3  -1  -6   47.60   16.10
  -3   1  -6   40.30   17.30
   3  -1  -6   41.00   10.20
   3   1   6   68.59   11.30
   3   1   6   50.79   17.20
   3  -1  -6   45.30   14.30
   3   1   6   67.99   17.40
   3  -1  -6   51.19    5.40
   3   1   6   33.80   13.60
  -3  -1   6   56.59   19.50
   3  -1  -6   41.10   16.70
   3  -1  -6   25.80   16.50
   3   1   6   32.10   20.50
   3  -1  -6   47.60    9.20
  -3   1  -6   40.70   17.00
   3   1   6   49.70   10.10
  -3   1  -6   19.50   16.00
   4  -1   6  262.87   44.30
   4  -1   6  134.89   28.70
   4   1  -6  160.18   27.00
   4  -1   6  175.68   17.90
  -4   1   6  158.18   29.20
   4   1  -6  195.38   26.10
  -4  -1  -6  162.08   32.30
   4  -1   6  142.49   28.10
  -4  -1  -6  177.48   28.30
   4   1  -6  224.78   36.50
  -4  -1  -6  190.28   33.30
   4   1  -6  164.78   14.80
  -4   1   6  175.78   29.10
   4   1  -6  159.88   27.40
   4  -1   6  145.69   24.60
   4  -1   6  187.68   28.60
   4  -1   6  144.09   15.10
   4   1   6  211.38   32.80
   4  -1  -6  139.39   23.70
   4  -1  -6  118.49   21.20
  -4  -1   6  130.59   28.60
   4  -1  -6  135.79   23.60
   4   1   6  191.78   17.90
  -4   1  -6  220.58   36.00
  -4  -1   6  159.58   29.80
   4   1   6  113.09   26.20
  -4   1  -6  137.59   27.90
   4  -1  -6  134.59   13.20
   4  -1  -6  174.18   28.30
   5  -1   6   -3.00   26.60
   5   1  -6   29.40   31.20
   5  -1   6   37.80   27.90
  -5  -1  -6   35.70   35.20
  -5  -1   6   13.90   36.60
   5  -1  -6   22.80   28.00
  -5   1  -6   11.00   37.00
   5   1   6   33.90   33.30
   5   1   6   47.50   32.50
  -5   1  -6   41.90   35.30
   0   2   6  588.44   23.40
   0   2   6  583.04   23.50
   0  -2  -6  597.64   22.80
   0  -2   6  624.34   25.50
   0  -2  -6  574.04   27.10
   0  -2  -6  567.84   23.30
   0   2  -6  607.94   25.40
   0   2  -6  597.84   23.50
   0   2   6  541.95   30.30
   0  -2  -6  571.64   21.00
   0  -2   6  582.54   18.90
   0   2  -6  582.84   27.90
   0  -2   6  575.14   22.30
   0  -2   6  582.14   24.40
   0   2  -6  634.34   24.30
   0   2   6  614.84   24.30
   0   2  -6  601.54   20.10
   0  -2   6  557.34   26.60
   0   2  -6  639.44   25.70
   0   2   6  613.34   23.70
   0  -2   6  579.74   24.10
   1   2  -6 6207.28  161.98
   1   2  -6 6638.54  161.28
  -1  -2  -6 6258.97  158.68
   1  -2   6 6482.05  160.88
  -1   2   6 6183.28  166.98
  -1   2   6 6239.28  159.28
   1  -2   6 6438.86  163.38
  -1  -2  -6 6258.17  157.38
   1  -2   6 6425.56  159.48
  -1  -2  -6 6164.28  152.38
  -1  -2  -6 6314.07  163.08
   1   2  -6 6423.46  158.48
   1   2  -6 6363.96  160.48
   1  -2   6 6287.27  162.28
   1   2  -6 6729.93  167.18
   1  -2   6 6271.87  160.68
   1  -2   6 6466.45  157.38
  -1  -2  -6 6351.86  162.98
  -1   2   6 6150.08  151.28
  -1   2   6 6307.87  155.68
  -1   2   6 6347.96  154.88
  -1   2   6 6463.15  161.78
   1   2  -6 6697.73  161.18
  -1   2   6 6361.86  160.78
   1   2  -6 6275.87  159.38
  -1  -2  -6 6633.94  161.28
  -1   2  -6 6250.97  160.48
  -1   2  -6 6366.06  160.38
   1  -2  -6 6228.58  154.88
  -1  -2   6 6411.66  161.48
   1  -2  -6 6101.49  156.88
  -1  -2   6 6020.80  158.28
  -1  -2   6 6248.47  155.78
  -1  -2   6 6367.26  157.48
  -1   2  -6 6362.56  163.48
  -1   2  -6 6135.89  151.78
  -1   2  -6 6252.87  165.08
  -1  -2   6 6534.45  162.08
  -1  -2   6 6130.39  160.38
   1   2   6 6481.75  160.58
   1   2   6 6619.24  163.18
   1   2   6 6444.46  158.18
  -1   2  -6 6163.38  161.68
  -1   2  -6 6479.75  158.88
   1   2   6 6223.48  162.98
  -1   2  -6 6343.56  165.18
   1   2   6 6396.46  164.98
  -1  -2   6 6266.97  163.48
   1  -2  -6 6440.86  161.88
   1  -2  -6 6451.35  166.68
   2  -2   6    6.90    7.30
  -2   2   6   12.60    9.70
  -2  -2  -6   11.50    7.80
   2   2  -6   22.30   13.70
   2   2  -6    8.10    7.60
   2   2  -6    3.00    6.20
  -2   2   6   16.10    9.00
  -2   2   6    9.00   12.00
   2  -2   6    6.60    8.70
   2  -2   6   18.90    7.10
   2  -2   6   24.50   11.30
  -2   2   6   27.30    9.30
   2  -2   6    7.10    8.60
   2   2  -6   13.60    7.60
   2   2  -6    6.40    6.00
  -2  -2  -6   10.80    8.90
  -2   2   6    6.50    7.50
   2  -2   6   13.00    9.80
   2   2  -6    9.00   14.10
  -2   2   6    3.50    7.10
   2   2  -6   23.00    7.40
  -2  -2  -6    7.30   14.90
  -2  -2  -6   12.80   10.60
   2  -2  -6    5.80   13.30
   2   2   6    5.90   10.50
  -2  -2   6    3.70   10.30
  -2   2  -6   -0.60   11.60
  -2   2  -6    8.60    5.80
   2  -2  -6   11.40    6.00
   2  -2  -6   11.50    7.70
  -2  -2   6   11.10    7.80
   2  -2  -6   14.10   12.40
   2  -2  -6   17.80    8.50
  -2   2  -6    4.70    9.80
  -2  -2   6   22.90   10.30
   2   2   6   31.50   15.80
  -2  -2   6    4.90    9.10
  -2   2  -6    6.50   11.10
  -2  -2   6    9.00    8.20
   2   2   6   12.10    8.90
   2  -2  -6   11.70    6.20
   2   2   6   -2.20   10.40
  -2   2  -6   11.20   10.20
   2  -2  -6   19.70    6.90
   2   2   6   24.90    9.00
   2  -2  -6    6.90    6.00
  -3   2   6 1061.99   59.19
   3   2  -6 1108.39   40.60
  -3   2   6 1058.09   53.89
   3   2  -6 1070.09   42.80
   3  -2   6 1044.70   38.50
  -3  -2  -6 1092.99   56.09
  -3  -2  -6  966.80   46.80
   3  -2   6 1074.79   50.29
   3  -2   6 1068.49   51.79
   3  -2   6  995.90   42.20
  -3   2   6 1039.90   43.80
  -3  -2  -6 1066.99   41.40
   3  -2   6 1028.40   44.60
   3   2  -6 1050.49   43.60
   3  -2   6 1059.49   40.60
   3   2  -6 1063.99   38.40
   3   2  -6  947.91   51.39
   3  -2   6 1013.50   40.50
  -3  -2   6 1048.50   55.49
   3  -2  -6 1067.29   30.40
   3  -2  -6 1047.90   36.60
   3  -2  -6 1069.09   39.60
   3  -2  -6  995.80   47.50
  -3  -2   6 1085.19   49.60
   3  -2  -6 1083.79   42.50
   3   2   6 1105.99   54.59
  -3   2  -6 1026.30   57.19
   3   2   6 1063.79   39.80
   3   2   6 1145.29   42.90
  -3   2  -6 1070.59   48.90
  -3   2  -6 1105.99   53.19
   3  -2  -6 1060.59   36.20
  -3  -2   6  978.30   52.59
  -3  -2   6 1038.60   35.90
   3   2   6 1014.20   37.40
   3  -2  -6 1041.70   37.40
   3  -2  -6 1038.50   35.60
   3  -2  -6 1027.60   46.60
  -4  -2  -6   93.79   29.40
  -4   2   6  148.29   34.00
  -4   2   6   73.89   31.50
   4   2  -6  114.99   26.80
   4   2  -6   69.19   15.10
   4   2  -6   52.49   27.00
  -4  -2  -6   82.19   26.50
   4  -2   6   76.09   19.80
   4  -2   6  121.39   21.00
   4  -2   6   92.19   14.10
   4   2  -6   86.49   17.70
   4   2   6  105.59   16.60
   4   2   6  107.49   32.00
   4  -2  -6  144.39   22.00
   4  -2  -6   88.09   13.30
  -4   2  -6   56.99   29.00
   4  -2  -6   90.59   13.50
   4   2   6   95.09   28.50
   4  -2  -6   92.99   24.90
  -4  -2   6   85.19   32.70
  -4   2  -6   85.59   28.40
   4  -2  -6  105.89   22.80
  -4  -2   6   64.49   27.30
  -5   2   6  160.88   43.80
   5  -2   6  179.38   33.40
   5   2  -6   71.99   41.00
  -5  -2  -6  143.99   42.00
  -5   2   6  126.79   46.80
  -5  -2  -6  170.78   61.49
  -5  -2   6  146.49   47.30
   5   2   6   81.29   42.90
  -5   2  -6  108.39   49.90
   5   2   6  193.68   43.70
   5  -2  -6  182.98   36.10
  -5   2  -6  144.19   43.20
  -5  -2   6  108.09   43.60
   0   3  -6 4783.62  128.79
   0  -3  -6 4870.11  128.79
   0  -3   6 4871.91  133.39
   0  -3   6 4875.71  129.59
   0  -3   6 4842.32  124.29
   0  -3   6 4896.51  128.59
   0  -3   6 4837.42  129.69
   0   3   6 4750.32  125.99
   0  -3   6 4912.41  118.39
   0   3  -6 4760.62  129.89
   0   3   6 4930.61  133.99
   0   3   6 4105.39  131.09
   0  -3  -6 4952.00  132.09
   0  -3  -6 4958.40  124.09
   0   3   6 4899.81  121.69
   0  -3  -6 4732.93  132.89
   0  -3  -6 4748.73  122.39
   0  -3  -6 4689.13  126.39
   0   3  -6 4780.92  118.49
   0   3   6 4962.80  127.59
   0   3  -6 4793.12  133.69
   0   3  -6 4956.00  125.69
   0   3  -6 4755.32  130.89
   0   3   6 4920.81  127.09
   1  -3   6  167.58   17.60
  -1  -3  -6  216.58   19.80
  -1   3   6  204.68   16.30
   1   3  -6  174.18   18.10
   1  -3   6  230.48   20.50
   1   3  -6  183.68   23.70
  -1   3   6  201.58   17.00
   1  -3   6  204.98   19.60
  -1  -3  -6  209.58   16.30
  -1  -3  -6  216.48   18.60
   1  -3   6  206.38   18.50
  -1   3   6  153.78   22.60
   1   3  -6  178.48   19.80
  -1   3   6  178.08   21.20
  -1   3   6  200.58   11.40
  -1   3   6  187.78    9.60
  -1   3   6  194.88   16.20
  -1  -3  -6  181.58   14.70
  -1  -3  -6  182.58   20.90
   1   3  -6  192.68   17.80
   1  -3   6  217.48   17.60
   1   3  -6  207.48   20.60
   1   3  -6  202.08   17.10
   1  -3   6  137.09   20.70
   1   3  -6  205.38   18.50
  -1   3  -6  181.88   10.60
  -1   3  -6  199.58   18.30
   1   3   6  209.28   22.90
   1  -3  -6  231.38   20.60
  -1  -3   6  180.08   17.40
   1  -3  -6  214.28   20.60
   1   3   6  225.48   22.50
  -1  -3   6  216.38   20.90
  -1  -3   6  182.58   15.00
  -1   3  -6  216.78   17.90
   1   3   6  194.48   20.80
  -1  -3   6  213.28   17.00
  -1  -3   6  209.38   22.00
   1  -3  -6  189.58   15.10
  -1   3  -6  184.38   17.70
   1  -3  -6  193.18   17.00
   1   3   6  193.88   19.20
   1   3   6  207.08    9.80
  -1   3  -6  177.68   20.30
  -1   3  -6  178.38   19.10
  -1  -3   6  204.48   17.80
  -1  -3   6  204.68   17.60
  -1   3  -6  226.68   22.80
   1   3   6  179.98   18.00
   1  -3  -6  224.88   19.40
  -1  -3   6  211.38   20.60
  -1   3  -6  175.38   18.80
   1   3   6  210.98   18.20
   2  -3   6 1501.35   59.49
  -2   3   6 1583.24   52.79
   2  -3   6 1627.44   59.39
   2   3  -6 1541.55   54.39
  -2  -3  -6 1572.24   49.20
   2  -3   6 1581.34   58.19
   2  -3   6 1555.34   50.49
  -2  -3  -6 1592.24   50.79
   2   3  -6 1555.94   69.29
  -2  -3  -6 1630.04   59.69
  -2   3   6 1594.84   54.39
   2   3  -6 1582.04   61.39
   2  -3   6 1543.25   55.59
   2  -3   6 1539.55   58.59
  -2   3   6 1563.64   67.19
  -2  -3  -6 1542.75   44.10
   2   3  -6 1588.94   55.39
  -2  -3  -6 1590.54   51.59
  -2  -3  -6 1667.23   52.69
  -2   3   6 1568.64   58.69
   2   3  -6 1514.25   54.49
  -2  -3  -6 1574.14   63.69
   2  -3  -6 1537.35   51.29
   2  -3  -6 1543.75   51.79
   2  -3  -6 1615.54   50.69
  -2   3  -6 1597.94   59.69
  -2   3  -6 1550.94   65.09
   2  -3  -6 1491.65   55.19
  -2  -3   6 1599.84   58.09
   2   3   6 1584.14   53.99
  -2  -3   6 1558.64   46.20
  -2   3  -6 1540.55   59.49
  -2   3  -6 1655.63   55.09
  -2   3  -6 1560.44   71.09
  -2   3  -6 1581.14   51.99
  -2  -3   6 1560.74   63.59
  -2  -3   6 1587.04   47.40
  -2  -3   6 1620.14   47.30
   2   3   6 1565.54   63.99
  -2  -3   6 1566.54   61.39
   2  -3  -6 1658.13   56.19
   2   3   6 1531.65   59.39
   2   3   6 1638.94   60.19
   3   3  -6   11.70   12.80
   3  -3   6   11.80   18.00
   3   3  -6    9.60    9.80
  -3  -3  -6   19.10   18.50
  -3   3   6   10.40   16.80
  -3  -3  -6    8.80   15.00
   3  -3   6   -5.50   19.70
  -3   3   6   23.10   16.40
   3  -3   6    3.50   18.50
   3  -3   6   31.70   15.20
  -3   3   6   20.50    8.70
  -3  -3  -6   40.50   34.40
   3  -3   6   25.90   11.60
   3   3  -6   35.80   21.10
   3  -3   6   13.50   13.40
  -3   3   6   -0.50   21.20
  -3   3  -6   13.30   18.10
   3  -3  -6    7.60   16.00
  -3  -3   6    2.40   14.40
   3   3   6  -13.10   14.50
   3  -3  -6   34.50   11.00
   3  -3  -6   30.30   11.40
   3   3   6   18.40   19.20
   3   3   6    2.50   14.80
  -3  -3   6    8.00   18.60
   3  -3  -6   -2.70   12.70
   3  -3  -6    7.60   11.70
  -3   3  -6   50.49   18.80
   3  -3  -6   25.10   19.00
  -3  -3   6    1.90   22.90
  -3  -3   6    3.60   16.20
  -4  -3  -6  927.71   66.39
   4   3  -6  862.01   43.30
   4  -3   6  855.71   55.19
   4  -3   6  804.42   44.90
   4   3  -6  873.71   63.19
  -4  -3  -6  910.01   54.39
  -4   3   6  727.13   63.29
   4   3  -6  859.61   44.30
   4  -3   6  789.52   42.10
   4  -3  -6  767.12   39.40
  -4   3  -6  777.82   64.99
   4  -3  -6  843.52   35.80
  -4  -3   6  799.12   65.79
   4  -3  -6  818.62   39.50
   4  -3  -6  779.72   33.90
   4   3   6  851.41   62.89
   4  -3  -6  873.81   61.59
  -4  -3   6  875.61   63.69
  -4   3  -6  903.21   57.49
   0   4   6  174.28   19.80
   0  -4  -6  147.89   16.10
   0   4   6  110.89   18.80
   0  -4  -6  154.68   22.20
   0  -4   6  179.68   25.20
   0   4  -6  185.38   20.90
   0   4   6  169.58   16.60
   0  -4   6  132.39   19.00
   0  -4  -6  185.68   21.90
   0  -4   6  157.58   18.30
   0  -4   6  164.08   14.90
   0   4   6  154.78   23.20
   0   4  -6  186.08   21.20
   0  -4   6  230.78   29.20
   0  -4   6  205.68   22.60
   0  -4  -6  205.78   27.40
   0   4   6  159.28   19.50
   0   4  -6  165.18   22.10
   0   4  -6  163.38   21.50
   0  -4   6  180.38   17.40
   0   4   6  135.99   19.10
   0  -4  -6  181.48   17.30
   1  -4   6  816.92   30.20
   1  -4   6  867.21   45.20
   1   4  -6  780.52   47.10
  -1   4   6  768.32   43.90
  -1  -4  -6  873.41   45.10
   1   4  -6  872.01   37.90
  -1  -4  -6  848.92   40.60
   1  -4   6  831.22   40.20
  -1   4   6  783.92   45.80
  -1   4   6  791.12   35.50
  -1  -4  -6  875.81   35.80
  -1   4   6  829.42   28.10
  -1  -4  -6  861.41   37.70
   1  -4   6  805.62   38.30
  -1   4   6  889.61   38.30
   1   4  -6  810.32   40.90
   1   4  -6  825.82   39.90
  -1  -4  -6  808.72   41.40
   1  -4   6  819.82   44.90
  -1   4  -6  848.52   44.00
  -1   4  -6  871.21   37.50
  -1  -4   6  840.72   36.30
   1  -4  -6  847.32   37.90
  -1  -4   6  735.93   45.90
  -1  -4   6  808.52   39.60
   1  -4  -6  817.52   43.50
  -1  -4   6  845.32   40.10
   1  -4  -6  851.91   37.90
   1   4   6  829.42   43.00
  -1  -4   6  798.22   39.40
   1   4   6  792.32   40.40
   1   4   6  792.72   46.70
  -1  -4   6  837.82   41.80
   1  -4  -6  833.22   40.90
   1   4   6  852.11   29.90
  -1   4  -6  803.02   39.60
  -1  -4   6  903.31   45.50
   1  -4  -6  838.92   41.60
  -1  -4   6  736.93   36.80
   1  -4  -6  815.32   41.80
  -1   4  -6  836.42   36.70
  -2   4   6  177.28   25.40
   2   4  -6  114.59   20.70
  -2  -4  -6  115.59   18.40
  -2  -4  -6  118.09   16.90
  -2   4   6  123.19   20.90
  -2   4   6  108.39   17.20
  -2  -4  -6  113.79   15.70
   2  -4   6  116.09   19.70
   2  -4   6  164.18   24.10
  -2  -4  -6  165.38   25.50
  -2  -4  -6  135.89   17.90
   2  -4   6  118.99   22.70
  -2  -4  -6   93.59   21.10
   2  -4   6  103.69   22.30
  -2   4   6  107.29   24.10
   2   4  -6   99.89   17.90
  -2   4  -6  103.39   17.70
   2  -4  -6  177.08   26.30
   2  -4  -6  134.79   23.60
  -2  -4   6  119.39   19.20
  -2  -4   6   96.09   19.80
   2   4   6  117.99   24.00
  -2   4  -6  127.39    7.40
  -2   4  -6  119.89    8.40
   2  -4  -6  115.69   19.70
  -2  -4   6  205.78   31.10
   2  -4  -6  141.09   19.10
  -2   4  -6  125.49   20.60
   2   4   6  123.99   23.30
  -2   4  -6   88.99   17.20
  -2   4  -6  111.69   22.90
  -2  -4   6   99.59   20.30
  -2  -4   6  126.69   21.50
  -2  -4   6  119.69   16.10
   3  -4   6  594.34   34.10
  -3  -4  -6  571.84   51.79
  -3   4   6  624.54   55.49
   3   4  -6  600.54   40.40
  -3   4   6  662.13   47.70
   3   4  -6  602.94   37.20
   3  -4   6  645.14   42.30
  -3   4   6  574.64   32.70
   3  -4   6  682.33   52.79
  -3  -4  -6  537.95   36.90
   3  -4  -6  621.04   36.30
   3   4   6  626.24   52.29
  -3   4  -6  693.33   54.39
   3  -4  -6  548.45   39.90
  -3   4  -6  719.23   48.60
   3  -4  -6  651.43   39.50
  -3  -4   6  624.24   53.79
  -3  -4   6  644.14   50.99
   3  -4  -6  594.64   33.40
   3  -4  -6  523.75   43.50
   4   4  -6   56.09   23.40
   4   4  -6   12.60   32.90
  -4   4   6  -13.90   33.10
   4  -4   6   13.40   22.20
  -4   4   6  138.89   35.70
  -4  -4  -6   80.59   37.30
   4  -4   6   86.89   30.60
   4   4  -6   60.09   22.20
   4   4   6   77.69   32.30
  -4   4  -6   73.09   33.60
  -4  -4   6   64.29   33.30
   4  -4  -6   60.49   31.60
   4  -4  -6   33.30   19.70
  -4   4  -6   50.29   39.20
  -4  -4   6   77.49   36.10
   0  -5   6  450.65   40.60
   0  -5   6  468.35   31.10
   0   5  -6  406.76   34.00
   0  -5   6  448.46   31.60
   0  -5  -6  464.45   31.90
   0  -5  -6  473.95   41.50
   0   5   6  430.56   33.30
   0   5   6  405.56   32.20
   0  -5   6  486.15   24.50
   0  -5  -6  446.56   30.00
   0  -5   6  429.66   31.90
   0   5  -6  397.36   35.60
   0   5  -6  425.26   35.10
   0   5  -6  437.76   33.50
   0   5   6  463.95   25.80
   0   5   6  490.75   47.70
   0  -5   6  379.86   45.40
   1  -5   6  600.54   49.10
  -1  -5  -6  612.84   35.70
  -1  -5  -6  595.74   46.50
  -1   5   6  530.85   43.20
   1  -5   6  610.24   47.40
   1  -5   6  588.64   37.00
  -1   5   6  578.04   27.70
   1   5  -6  582.04   39.90
   1  -5   6  565.44   38.90
  -1   5   6  609.14   30.30
  -1  -5  -6  588.84   39.80
   1  -5   6  549.45   40.10
   1  -5   6  569.14   27.10
  -1   5   6  598.84   33.40
   1   5  -6  578.14   38.50
  -1  -5  -6  581.64   34.90
   1   5   6  566.24   42.00
   1  -5  -6  601.24   50.29
   1  -5  -6  638.44   37.40
   1   5   6  544.75   39.50
   1  -5  -6  667.83   46.00
  -1  -5   6  619.74   39.50
  -1   5  -6  605.04   39.90
  -1  -5   6  627.14   43.00
  -1  -5   6  568.14   45.40
   1   5   6  570.44   29.10
   1  -5  -6  627.24   36.10
  -1   5  -6  601.64   42.40
  -1  -5   6  555.54   34.40
   1   5   6  607.74   52.09
  -1  -5   6  638.04   38.90
  -1   5  -6  525.15   35.50
  -2  -5  -6   52.99   16.90
   2  -5   6   31.90   20.50
  -2   5   6   56.69   19.10
  -2  -5  -6   82.09   24.50
   2   5  -6   54.89   17.20
   2  -5   6   20.80   19.50
  -2  -5  -6   39.50   14.30
  -2   5   6   38.70   11.80
   2   5  -6   73.19   19.10
  -2  -5  -6   48.00   15.20
  -2  -5  -6   35.70   14.00
  -2  -5  -6   54.79   23.50
   2  -5   6   68.89   21.40
   2  -5   6   38.80    8.60
  -2  -5   6   55.59   22.20
   2  -5  -6   52.19   19.00
   2  -5  -6   44.70   21.90
  -2  -5   6   34.50   22.90
  -2   5  -6   45.70   16.90
  -2   5  -6   21.40   20.00
   2   5   6  120.99   49.60
   2   5   6   75.89   24.30
  -2  -5   6   68.09   16.00
  -2   5  -6   38.50    7.60
   2  -5  -6   55.09   19.80
  -2  -5   6   33.60   25.20
  -2   5  -6   45.40    9.90
  -2   5  -6   59.99   20.20
   3  -5   6   49.30   25.50
  -3   5   6   74.19   29.20
  -3   5   6   84.19   15.80
   3   5  -6   50.89   23.20
   3  -5   6   48.30   19.60
  -3  -5  -6   45.90   31.80
   3   5  -6   68.09   19.70
  -3   5   6  118.29   34.50
   3  -5   6   53.99   22.80
   3  -5   6   20.50   22.40
  -3  -5   6   54.09   29.60
   3   5   6  110.89   32.10
   3  -5  -6   83.39   22.40
   3  -5  -6   90.59   24.00
   3  -5  -6  100.59   20.40
  -3  -5   6  132.19   36.50
  -3   5  -6   74.59   32.20
   0   6  -6   72.89   30.60
   0   6  -6   87.09   20.70
   0   6   6   55.29   21.60
   0  -6   6   66.99   20.70
   0  -6  -6  104.39   31.70
   0   6  -6   60.69   21.30
   0   6   6   47.50   19.60
   0  -6  -6   55.39   20.80
   0  -6   6   56.89   30.60
   0  -6   6   95.19   22.20
   0  -6   6   79.39   21.60
   1   6  -6  384.56   41.70
  -1  -6  -6  489.55   45.00
  -1   6   6  431.06   34.30
  -1   6   6  431.16   44.80
  -1  -6  -6  432.36   38.10
  -1   6   6  420.46   33.50
  -1  -6  -6  385.26   49.90
   1  -6   6  431.36   38.60
   1  -6   6  393.96   50.69
   1   6  -6  426.76   41.60
   1  -6   6  406.16   38.40
   1  -6  -6  438.26   31.80
   1  -6  -6  421.16   38.30
  -1  -6   6  306.57   51.09
  -1  -6   6  374.76   40.00
   1  -6  -6  435.76   49.50
  -1   6  -6  468.35   41.00
  -1   6  -6  399.36   45.50
  -1  -6   6  374.16   42.20
  -1  -6   6  375.86   36.70
   1   6   6  487.75   48.10
   1   6   6  400.86   30.40
  -1  -6   6  406.66   39.60
   1  -6  -6  433.16   40.30
   2   6  -6   64.29   22.20
  -2  -6  -6   84.89   35.00
   2  -6   6   40.90   22.00
  -2   6   6   56.89   24.30
  -2   6   6   54.09   34.80
   2  -6   6   23.80   27.20
  -2  -6  -6   81.29   20.10
  -2  -6  -6   66.29   22.90
   2  -6   6   37.70   21.40
   2   6  -6   37.80   24.60
  -2   6   6   29.10   16.20
  -2  -6   6   37.60   27.70
   2  -6  -6   76.69   30.20
   2  -6  -6   79.19   25.60
  -2   6  -6   73.09   12.50
  -2  -6   6   49.60   29.50
  -2   6  -6   -3.10   28.20
   2   6   6  112.39   34.50
  -2  -6   6   78.49   30.10
   2  -6  -6   71.39   23.90
  -3   6   6  273.97   52.19
   3  -6   6  204.18   34.30
   3  -6   6  216.28   38.30
  -3  -6  -6  249.48   49.10
   3  -6   6  140.89   40.40
   3   6  -6  159.58   35.60
   3   6  -6  115.19   28.90
   3  -6  -6  289.77   48.90
   3  -6  -6  179.68   31.00
  -3   6  -6  261.77   49.50
  -3  -6   6   98.49   38.80
  -3  -6   6  212.28   45.90
   3  -6  -6  198.38   32.30
   3   6   6  155.18   43.90
   0   7   6  806.72   62.09
   0   7  -6  724.73   59.59
   0   7   6  870.91   58.29
   0  -7  -6  730.93   52.59
   0  -7  -6  858.81   73.89
   0  -7   6  626.04   53.19
   0   7  -6  753.92   58.59
   0  -7   6  690.93   73.09
   0  -7  -6  655.73   53.99
   0  -7   6  771.22   57.99
  -1   7   6  -13.90   19.10
  -1   7   6  -45.50   31.40
   1  -7   6    5.50   26.60
   1  -7   6   45.70   27.10
   1   7  -6   -2.20   24.70
  -1  -7  -6   20.60   28.90
   1   7  -6  -18.40   24.20
   1  -7   6  -11.40   35.40
  -1  -7  -6   20.20   26.50
  -1  -7   6   -1.00   28.30
   1  -7  -6    6.60   22.00
  -1   7  -6   16.70   27.10
  -1   7  -6   -5.60   31.70
   1   7   6   17.10   34.00
   1  -7  -6   53.89   29.20
   1  -7  -6   38.30   37.20
  -1  -7   6  -18.20   24.30
  -1  -7   6  -15.50   26.20
   2   7  -6  333.47   53.49
  -2  -7  -6  310.27   48.80
  -2  -7  -6  314.07   47.90
  -2  -7  -6  424.66   43.10
   2  -7   6  308.77   49.40
   2  -7   6  271.27   42.80
   2   7  -6  292.57   52.19
  -2   7   6  296.57   34.20
   2  -7   6  264.97   48.00
   2  -7  -6  248.48   41.20
   2  -7  -6  458.75   51.49
  -2  -7   6  362.76   59.39
  -2   7  -6  349.27   53.69
   2   7   6  398.66   56.39
  -2  -7   6  403.36   64.29
  -2  -7   6  409.66   48.80
   2  -7  -6  303.17   52.19
   0   0  -7    4.90    4.70
   0   0   7    1.30    4.10
   0   0   7   11.60    3.80
   0   0   7    0.60    4.40
   0   0  -7    7.50    4.20
   0   0  -7   11.10    6.10
   0   0  -7    3.00    4.30
   0   0   7    7.30    4.10
   0   0   7    5.20    4.90
   0   0   7    2.80    4.00
   0   0  -7    3.10    3.60
   0   0  -7    2.20    3.70
   0   0  -7    4.80    4.20
   0   0   7    1.40    2.90
   0   0   7    7.60    4.40
  -1   0   7 1043.40   35.50
   1   0   7 1121.29   34.00
  -1   0   7 1067.79   33.30
  -1   0   7 1078.49   32.30
  -1   0   7 1085.39   39.00
  -1   0   7 1142.49   39.00
  -1   0   7 1045.10   37.50
  -1   0  -7 1082.69   30.10
   1   0  -7 1061.09   26.40
   1   0  -7 1101.49   31.80
   1   0   7 1089.79   30.20
   1   0  -7 1093.69   37.70
   1   0   7 1031.30   32.00
   1   0  -7 1087.69   39.40
   1   0  -7 1100.29   38.10
   1   0  -7 1058.79   33.30
   1   0  -7 1063.99   31.20
   1   0   7 1094.89   37.40
   1   0  -7 1100.79   31.20
  -1   0  -7 1050.89   35.40
   1   0   7 1024.40   35.40
   1   0   7 1102.09   36.50
   1   0   7 1031.30   39.10
  -1   0   7 1093.49   29.30
  -1   0  -7 1114.89   33.20
   1   0   7 1135.89   33.20
  -1   0  -7 1085.69   37.30
   1   0  -7 1083.79   37.00
  -1   0  -7 1010.60   34.30
  -2   0   7  212.48   11.40
  -2   0  -7  212.88   19.90
   2   0   7  201.38   19.80
  -2   0   7  241.28   18.00
   2   0  -7  219.58   12.20
   2   0  -7  248.48   18.10
  -2   0   7  209.48   20.80
   2   0  -7  218.68   12.10
   2   0  -7  233.28   18.40
   2   0  -7  212.98   18.00
   2   0   7  179.18   17.50
   2   0   7  210.08   18.90
  -2   0  -7  198.48   18.60
  -2   0  -7  210.48    7.90
  -2   0  -7  191.08   17.30
   2   0  -7  206.48   23.40
   2   0  -7  203.98   19.40
   2   0  -7  216.68   10.10
  -2   0   7  183.78   21.90
   2   0  -7  217.98   10.20
   2   0   7  191.28   20.50
   2   0   7  223.98   15.20
  -2   0  -7  215.88   15.70
   2   0   7  207.98   10.90
   2   0  -7  227.18   23.70
  -2   0  -7  217.28    8.10
   2   0  -7  203.98   19.90
   2   0   7  217.28   23.00
   3   0   7   36.60   12.10
   3   0  -7   29.40   15.80
  -3   0   7    4.90   12.50
   3   0   7   10.90   13.70
  -3   0   7  -12.60   14.40
   3   0   7    8.10    6.30
   3   0  -7   22.80   17.90
   3   0  -7   13.50    7.20
  -3   0  -7    8.00   12.60
   3   0   7   22.90   12.20
   3   0   7   24.50    9.30
   3   0   7   26.00   14.40
  -3   0  -7   21.40    9.00
  -3   0  -7   11.00   16.00
   3   0  -7   22.30    5.00
   3   0  -7   15.00   11.40
  -3   0   7   21.30   17.20
   3   0  -7   24.50    4.70
   3   0  -7   24.60   12.30
   3   0  -7   31.10   12.70
   3   0   7   37.70    8.30
  -3   0  -7   26.60   15.20
   3   0   7   28.50    9.10
   3   0  -7    0.00   14.90
  -4   0   7  675.83   56.69
   4   0  -7  629.04   35.30
  -4   0  -7  648.14   47.60
  -4   0  -7  761.42   51.79
  -4   0   7  632.14   49.90
   4   0   7  701.53   56.49
  -4   0   7  704.93   47.20
   4   0  -7  647.34   41.70
   4   0   7  687.03   66.89
   4   0   7  693.03   26.90
   4   0   7  627.84   29.00
   4   0  -7  673.03   21.80
   4   0  -7  653.23   44.50
   4   0  -7  661.23   43.30
   4   0  -7  664.03   21.90
   5   0   7   -6.00   32.10
   5   0  -7  -16.10   26.80
  -5   0  -7  -15.90   29.80
   5   0   7    4.70   29.40
  -5   0  -7   52.39   37.70
   0  -1  -7  111.19   10.90
   0  -1   7  110.69   11.50
   0   1   7   98.89    8.70
   0  -1   7   93.09    9.10
   0  -1  -7  113.99    9.30
   0  -1   7  113.19    9.10
   0  -1  -7  111.39    6.80
   0   1  -7   99.79    9.30
   0   1  -7  101.49   12.00
   0   1   7  103.59   11.60
   0   1   7  109.39    8.70
   0  -1   7  116.39    9.60
   0   1  -7  110.89    9.80
   0   1  -7  114.59    8.40
   0   1   7   94.49    7.10
   0  -1  -7  107.79    9.80
   0  -1  -7  103.39    8.60
   0  -1   7  109.09    9.60
   0   1  -7  116.39   10.10
   0   1   7  103.09   10.10
   0  -1   7  116.29    9.30
   0  -1  -7  102.09   11.40
   0   1  -7  114.59   10.90
   0  -1  -7  101.99    8.90
   0  -1   7  106.59   10.20
   0  -1   7   90.79   10.40
   1   1  -7   45.30    7.90
  -1  -1  -7   51.69    4.30
   1  -1   7   61.59    8.30
  -1  -1  -7   48.50    7.60
  -1   1   7   34.50    7.30
  -1   1   7   41.20    6.70
   1   1  -7   41.40    7.70
  -1  -1  -7   39.20    4.80
  -1   1   7   36.50    4.40
   1   1  -7   60.59    9.20
  -1  -1  -7   48.40    7.60
   1  -1   7   56.29    8.80
  -1  -1  -7   64.19   11.30
   1   1  -7   56.39   10.50
   1  -1   7   64.79    9.90
   1  -1   7   41.10    5.70
   1   1  -7   35.80    8.20
   1   1  -7   54.19    6.70
  -1   1   7   41.40    7.10
  -1   1   7   49.10   11.20
  -1   1   7   57.89    9.20
   1  -1   7   55.99    9.70
  -1  -1  -7   55.69    9.90
   1  -1   7   45.10    9.40
  -1   1   7   49.10    9.20
   1   1  -7   50.79    8.60
   1  -1   7   53.19    8.70
  -1  -1  -7   36.70    7.90
   1   1   7   44.00    7.10
   1  -1  -7   54.19    8.00
   1   1   7   42.30    9.40
  -1   1  -7   45.80    5.80
  -1  -1   7   32.90    6.70
   1   1   7   54.99   10.70
  -1  -1   7   45.80    9.40
  -1  -1   7   42.90    7.10
   1  -1  -7   61.29    9.20
  -1   1  -7   54.79    9.70
  -1  -1   7   37.10    9.10
   1  -1  -7   43.10    4.70
  -1  -1   7   63.39   10.50
   1  -1  -7   44.60    7.80
  -1   1  -7   50.29   11.00
  -1   1  -7   37.70    7.70
   1  -1  -7   49.20   11.40
  -1  -1   7   43.80    7.40
  -1  -1   7   38.30    6.40
  -1  -1   7   51.59    7.10
   1  -1  -7   33.30    8.10
  -1   1  -7   39.70    8.90
   1  -1  -7   40.50    5.50
   1   1   7   43.90   10.20
  -1   1  -7   50.29    9.60
   1   1   7   40.20    6.60
   2   1  -7  311.67   27.40
   2   1  -7  304.57   15.40
  -2  -1  -7  322.47   13.90
   2  -1   7  319.47   19.20
  -2   1   7  304.97   20.70
  -2  -1  -7  335.67   26.40
   2  -1   7  313.57   25.10
   2   1  -7  328.57   19.60
   2   1  -7  303.27   16.40
  -2   1   7  320.37   16.00
   2  -1   7  331.97   18.00
   2   1  -7  310.47   21.20
  -2   1   7  325.27   24.70
  -2   1   7  303.47   20.90
   2   1  -7  348.27   24.60
   2   1  -7  342.17   15.50
  -2   1   7  331.47   27.40
   2   1  -7  308.97   26.60
   2  -1   7  331.67   11.30
   2   1  -7  348.47   25.30
  -2  -1  -7  280.87   23.90
  -2  -1  -7  322.77   21.40
  -2  -1  -7  308.77   17.90
   2   1  -7  315.27   21.20
   2  -1   7  341.97   18.70
  -2  -1  -7  315.17   13.30
  -2  -1  -7  340.17   19.70
   2  -1   7  331.47   24.90
   2  -1   7  318.77   23.70
   2  -1   7  331.37   20.70
   2  -1   7  331.87   18.00
  -2  -1   7  333.17   23.60
   2   1   7  336.87   20.00
   2  -1  -7  313.47   24.30
  -2   1  -7  319.37   27.40
  -2   1  -7  316.67   22.90
  -2  -1   7  306.27   24.30
   2  -1  -7  336.97   14.70
   2  -1  -7  308.77   14.80
   2   1   7  326.87   17.50
   2   1   7  348.27   17.30
  -2   1  -7  341.67   23.80
  -2   1  -7  309.37   22.50
   2  -1  -7  323.67   20.00
  -2  -1   7  331.57   27.00
   2   1   7  366.56   28.50
   2  -1  -7  320.47   24.50
  -2   1  -7  293.17   18.50
  -2  -1   7  342.17   16.80
   2   1   7  319.67   25.20
  -2  -1   7  307.97   22.90
   2  -1  -7  312.47   12.50
   2  -1  -7  283.97   22.10
   2   1   7  316.37   25.20
   2  -1  -7  346.67   29.00
  -2   1  -7  320.37   13.00
   2  -1  -7  313.27   13.60
   2  -1  -7  342.77   19.20
   2  -1  -7  321.07   20.00
   2  -1  -7  325.17   15.70
   3  -1   7  614.94   34.80
  -3  -1  -7  577.04   38.00
   3   1  -7  572.44   33.80
   3  -1   7  577.84   27.80
   3  -1   7  598.94   30.90
  -3  -1  -7  601.14   36.10
   3   1  -7  624.94   37.60
  -3   1   7  608.64   41.20
   3  -1   7  611.54   39.60
   3  -1   7  612.74   27.10
  -3   1   7  619.74   42.70
  -3   1   7  576.74   36.60
   3   1  -7  639.24   39.00
   3  -1   7  568.34   39.90
   3  -1   7  564.44   20.30
   3  -1   7  623.14   33.90
   3   1  -7  596.04   33.60
   3   1  -7  624.94   27.20
  -3  -1  -7  566.44   32.00
   3   1   7  544.45   43.90
   3  -1  -7  521.55   38.80
   3   1   7  610.34   29.90
   3   1   7  582.44   27.60
   3   1   7  596.94   38.10
   3  -1  -7  575.24   20.70
   3  -1  -7  619.54   36.50
   3  -1  -7  568.64   26.50
  -3   1  -7  566.44   40.50
  -3   1  -7  572.84   28.70
  -3   1  -7  560.44   37.90
   3   1   7  624.74   27.10
  -3   1  -7  536.55   38.00
   3   1   7  580.14   41.40
  -3  -1   7  602.24   43.00
  -3  -1   7  552.04   38.00
   3  -1  -7  586.04   19.10
  -3  -1   7  572.24   40.40
   3   1   7  617.14   27.10
   3  -1  -7  512.85   35.10
   3  -1  -7  585.94   18.80
   3  -1  -7  614.64   31.00
   3  -1  -7  548.25   36.70
   4  -1   7   56.09   20.50
  -4   1   7   26.10   21.10
  -4  -1  -7   22.40   23.30
   4  -1   7   -3.60   23.60
   4   1  -7   73.39   21.30
  -4   1   7   69.89   25.20
  -4  -1  -7   47.70   18.80
   4  -1   7   64.09   10.90
   4  -1   7   36.20   34.50
   4   1  -7   70.79   21.00
   4   1  -7   50.69   16.40
   4  -1   7   43.20   11.10
   4   1  -7   38.50   17.50
  -4   1   7   84.49   29.10
   4  -1   7   49.00   16.80
   4   1   7   27.30   23.70
  -4   1  -7   73.09   25.90
   4   1   7   73.39   25.10
  -4  -1   7   49.80   23.70
   4  -1  -7   15.30   20.20
  -4   1  -7   50.19   26.10
   4  -1  -7   53.19   16.10
   4  -1  -7   53.29   15.90
   4  -1  -7   47.20   13.80
  -4  -1   7   59.89   28.50
   4   1   7   35.70   12.10
  -5  -1  -7  161.28   41.00
   5  -1   7  174.18   34.60
   5   1  -7  239.78   41.10
  -5   1   7  236.28   46.00
   5  -1   7  176.98   34.30
  -5   1  -7  224.78   43.20
   5   1   7  227.98   40.00
  -5  -1   7  141.29   40.40
   5  -1  -7  179.88   36.30
  -5   1  -7  148.19   41.90
   5   1   7  189.48   42.50
  -5  -1   7  131.29   44.60
   0   2  -7   38.10    7.80
   0   2   7   30.10    8.40
   0   2  -7   25.10    9.40
   0   2  -7   31.70    6.30
   0   2   7   40.90    7.40
   0  -2   7   31.30   10.70
   0  -2  -7   39.00    6.90
   0  -2  -7   29.10    9.90
   0   2  -7   31.00    7.30
   0   2   7   37.00    8.10
   0  -2  -7   27.50    6.70
   0   2  -7   26.80    7.60
   0   2   7   33.60   10.20
   0  -2   7   33.90    7.70
   0  -2  -7   30.20    7.10
   0   2  -7   40.70    8.50
   0   2  -7   22.30    7.90
   0  -2   7   37.90    8.10
   0  -2   7   32.30    7.00
   0  -2   7   31.40    7.10
   0   2   7   33.20    6.70
   0  -2   7   44.30    8.30
   1  -2   7  127.59   12.80
  -1   2   7   80.59   15.00
   1  -2   7  116.19   13.80
   1   2  -7  120.29   14.60
  -1   2   7  120.19   14.10
   1   2  -7  120.79   11.60
  -1  -2  -7   99.29   11.40
   1  -2   7  123.79   15.80
  -1  -2  -7  138.59   15.20
   1  -2   7  133.19   13.80
   1   2  -7  124.59   13.40
  -1  -2  -7  110.39    8.80
   1  -2   7  112.79   12.90
   1  -2   7  127.69   15.00
  -1   2   7  116.79    9.80
  -1  -2  -7  105.89   13.10
   1   2  -7  134.59   18.70
   1   2  -7  118.09   12.50
  -1  -2  -7  131.39   12.20
   1   2  -7  125.39    5.50
  -1   2   7  129.89   14.80
  -1   2   7  120.29    9.10
  -1   2   7  115.79   11.20
   1   2  -7  107.49   14.30
  -1   2   7  108.19   11.90
  -1  -2  -7  119.79   15.60
   1   2  -7  142.69   15.10
  -1   2  -7  116.09   12.70
   1   2   7  125.59   15.80
  -1   2  -7  101.89   14.20
  -1  -2   7  115.19   11.20
   1   2   7  110.79   16.20
  -1  -2   7  100.59   12.80
  -1  -2   7  135.59   14.30
   1  -2  -7  113.99   15.00
   1  -2  -7  109.09    9.70
   1  -2  -7   99.09   11.70
   1   2   7  102.39   14.40
  -1  -2   7  120.79   11.40
  -1  -2   7  119.49   13.10
  -1   2  -7  136.39   13.60
  -1   2  -7   80.29   15.00
  -1  -2   7  117.29   11.50
  -1   2  -7  111.79   15.30
   1   2   7  109.19   12.50
  -1   2  -7  116.49    8.50
  -1  -2   7  100.49   15.30
   1   2   7  107.89   15.60
   1  -2  -7  116.99   15.90
  -1  -2   7  126.69   12.00
  -1  -2   7  112.39   17.00
  -1   2  -7  111.19   13.90
   2   2  -7  183.68   13.10
   2   2  -7  186.98   14.60
   2   2  -7  165.58   26.40
  -2   2   7  155.28   20.90
  -2  -2  -7  194.88   17.60
  -2  -2  -7  184.18   13.80
   2  -2   7  175.28   19.20
   2   2  -7  204.68   17.10
  -2   2   7  202.98   16.30
   2   2  -7  218.68   22.80
   2  -2   7  167.28   18.50
   2  -2   7  166.98   15.90
   2  -2   7  187.18   23.00
  -2   2   7  180.88   17.50
   2   2  -7  145.39   17.70
   2  -2   7  147.49   18.10
  -2  -2  -7  198.98   13.00
  -2   2   7  189.48   16.10
  -2   2   7  144.79   14.20
  -2  -2  -7  168.58   12.60
  -2   2   7  154.48   23.30
   2  -2   7  191.08   16.70
  -2  -2  -7  168.78   22.40
   2   2  -7  166.98   15.10
   2   2   7  179.58   23.20
  -2  -2   7  153.38   21.80
  -2   2  -7  166.18   21.40
   2  -2  -7  178.88   15.90
   2  -2  -7  179.08   15.90
   2  -2  -7  185.68   14.00
  -2  -2   7  189.28   17.30
  -2  -2   7  169.18   24.80
  -2  -2   7  172.08    7.20
  -2  -2   7  187.68    7.50
  -2   2  -7  138.29   20.90
   2  -2  -7  180.78   23.90
  -2  -2   7  187.98   16.90
  -2  -2   7  187.58   20.60
   2  -2  -7  169.58   25.40
   2   2   7  190.38   16.40
  -2  -2   7  195.28   19.90
   2   2   7  222.68   27.20
  -2   2  -7  177.08   20.70
   2   2   7  168.28   19.30
  -2   2  -7  192.28   22.10
   2   2   7  187.18   24.00
   2  -2  -7  176.28   11.60
  -2  -2   7  175.48    7.20
   2  -2  -7  158.88   14.90
  -3   2   7    0.70   16.40
   3   2  -7   -5.60   12.50
  -3  -2  -7    9.00   18.70
   3  -2   7   10.00   11.00
   3   2  -7   16.70    7.80
   3  -2   7    5.50    9.30
   3   2  -7  -14.90    9.80
   3  -2   7   -5.60   16.80
  -3   2   7    3.50   13.10
  -3  -2  -7   18.50   14.90
   3  -2   7   25.70   17.10
   3   2  -7   -8.90    9.60
   3  -2   7   17.60   14.30
  -3  -2  -7    9.60   11.80
  -3   2   7   17.30   19.90
   3  -2   7    8.80   11.60
   3  -2   7   31.60   10.00
   3  -2  -7   12.10    8.80
  -3   2  -7   38.50   17.60
  -3   2  -7   42.90   18.50
   3  -2  -7   43.80   17.30
   3  -2  -7   18.10    4.90
  -3  -2   7   16.80   16.60
   3  -2  -7    1.90    8.00
   3  -2  -7   23.30   15.60
   3  -2  -7    4.00   16.10
   3  -2  -7    8.80    8.80
  -3  -2   7    8.60   16.60
   3   2   7   -1.20   12.30
   3  -2  -7    1.70    4.90
  -3   2  -7   35.10   16.20
  -3   2  -7   23.70   11.50
   3   2   7    8.30   11.00
   3  -2  -7    5.30    7.50
  -3  -2   7    6.10    9.70
   3  -2  -7   10.00    9.00
   3   2   7   15.30   17.90
   3  -2  -7  -21.00   10.80
  -3  -2   7   15.60   17.70
   4  -2   7  107.19   17.00
   4   2  -7  165.48   20.30
   4  -2   7  124.99   23.50
   4  -2   7  124.59   17.70
   4  -2   7  113.69   22.90
  -4  -2  -7  165.88   33.40
   4   2  -7  137.99   29.70
  -4   2   7  146.59   32.60
  -4   2   7   91.29   30.60
   4   2  -7  135.29   21.00
   4   2  -7  242.78   43.70
   4   2   7  130.49   28.70
   4  -2  -7  123.09   17.20
  -4  -2   7  125.79   30.60
   4  -2  -7  126.99   20.30
   4   2   7  122.69   32.10
   4   2   7  123.59   19.70
   4  -2  -7  213.08   35.60
  -4   2  -7   99.29   32.20
  -4   2  -7  112.69   31.20
  -4  -2   7   82.59   30.50
   4  -2  -7  115.59   18.00
   0   3  -7    6.20    5.80
   0   3   7   -4.20    7.50
   0   3   7    7.80    8.30
   0   3   7    4.20    9.60
   0   3  -7    0.60    7.50
   0  -3  -7    9.10    6.70
   0   3  -7   -4.30    7.60
   0  -3   7    3.20    7.00
   0  -3   7    0.10    7.90
   0  -3   7   -9.20    5.90
   0  -3   7    9.60    5.40
   0   3  -7    3.00    8.20
   0  -3   7    7.40    8.60
   0   3   7   12.40    7.60
   0   3   7   -0.40    8.40
   0  -3  -7   15.10    9.50
   0   3  -7   -0.50    8.90
   0   3   7   -5.30    6.90
   0   3  -7    3.70    8.50
   0  -3  -7    3.10    7.20
   0  -3  -7   17.80    9.50
   1   3  -7   43.90   10.70
  -1  -3  -7   55.79   11.00
   1  -3   7   72.29   12.60
   1   3  -7   74.99   13.70
  -1   3   7   59.99    6.00
  -1   3   7   73.49   12.00
  -1   3   7   53.79    7.20
   1   3  -7   38.90   10.90
  -1   3   7   52.49   14.80
  -1   3   7   47.00    5.40
  -1  -3  -7   71.59   13.40
   1  -3   7   64.09   10.80
  -1  -3  -7   55.89    9.60
  -1  -3  -7   66.59   14.50
  -1   3   7   61.89   10.60
   1  -3   7   55.29   12.80
   1  -3   7   73.19   12.90
  -1   3   7   44.40   12.60
   1   3  -7   51.79   13.20
   1  -3   7   54.29   13.80
   1   3  -7   91.79   14.10
   1   3  -7   53.29   15.00
   1   3  -7   67.09   12.30
  -1   3   7   50.99   10.40
   1  -3   7   91.69   15.20
   1   3   7   59.89   15.80
   1   3   7   53.59   15.10
  -1   3  -7   62.79   11.60
  -1   3  -7   55.99   12.30
  -1   3  -7   47.00   11.80
   1   3   7   49.00   12.10
  -1  -3   7   48.70   13.40
  -1  -3   7   54.09   10.10
  -1  -3   7   63.49   11.70
   1   3   7   51.59   13.70
   1  -3  -7   60.09   12.10
   1  -3  -7   65.89   12.50
   1   3   7   77.19   14.80
  -1  -3   7   39.20   12.50
  -1  -3   7   51.39   10.10
  -1   3  -7   30.80   12.80
  -1  -3   7   75.69   13.20
   1  -3  -7   51.19   13.70
   1  -3  -7   43.50   12.20
  -1   3  -7   41.10   11.80
  -1   3  -7   50.49   11.30
  -1  -3   7   37.00   10.80
  -1   3  -7   70.49    6.80
   1   3   7   45.10   12.00
   1  -3  -7   48.10    9.90
  -1   3  -7   38.40   11.00
   2   3  -7  128.89   17.50
  -2   3   7  150.78   12.00
  -2  -3  -7  126.19   18.70
  -2  -3  -7  171.08   25.40
  -2   3   7  155.68   25.90
   2  -3   7  147.99   22.30
   2  -3   7  149.39   22.60
   2  -3   7  166.68   18.60
   2   3  -7  129.99   18.50
  -2  -3  -7  159.38   23.50
  -2   3   7  135.19   22.50
  -2  -3  -7  127.79    9.90
   2  -3   7  158.88   17.90
   2  -3   7   95.49   21.00
   2  -3   7  152.08   22.70
  -2  -3  -7  135.19   15.70
  -2   3   7  139.69   18.60
  -2  -3  -7  129.29   15.00
   2   3  -7  162.78   18.60
  -2   3   7  177.68   17.10
  -2  -3  -7  120.19   17.30
   2   3   7  126.49   21.90
   2  -3  -7  147.39   16.60
   2   3   7  176.08   24.70
  -2   3  -7  172.18   24.60
   2  -3  -7  123.89   19.10
   2  -3  -7  171.68   20.60
  -2   3  -7  172.38   17.60
  -2  -3   7  121.29   18.90
  -2   3  -7  150.18   23.60
  -2  -3   7  170.98   23.50
   2   3   7  144.79   21.50
  -2   3  -7  164.78   23.40
  -2   3  -7  124.29   20.80
   2   3   7  163.48   26.10
   2  -3  -7  125.59   14.30
  -2  -3   7  150.18   14.00
  -2  -3   7  171.48   25.40
  -2  -3   7  116.99   14.60
   2  -3  -7  166.28   17.40
  -2  -3   7  149.69   13.80
   2   3   7  128.69   23.90
   3   3  -7  267.57   27.10
  -3   3   7  255.37   36.40
   3  -3   7  312.97   30.90
  -3   3   7  285.47   23.90
  -3   3   7  292.17   30.20
  -3  -3  -7  227.78   38.40
  -3  -3  -7  329.17   30.50
  -3  -3  -7  341.17   33.20
   3   3  -7  320.47   24.40
   3  -3   7  304.97   25.40
   3  -3   7  239.98   29.80
   3  -3   7  247.58   33.90
   3  -3   7  304.97   32.20
   3   3   7  355.76   35.10
  -3  -3   7  249.48   33.00
  -3   3  -7  286.27   38.50
   3  -3  -7  257.27   38.80
   3   3   7  315.17   28.90
   3  -3  -7  329.17   29.30
  -3  -3   7  265.47   27.40
   3   3   7  296.37   38.00
   3  -3  -7  246.58   20.10
  -3   3  -7  320.67   38.80
  -3   3  -7  317.77   35.20
  -3  -3   7  317.37   39.20
   3  -3  -7  263.77   23.00
   3  -3  -7  321.87   27.40
   3  -3  -7  302.47   32.00
  -4  -3  -7   43.90   33.40
   4  -3   7   58.99   19.90
   4   3  -7   67.19   19.90
   4   3  -7   40.10   17.10
   4  -3   7   38.40   19.20
   4   3  -7   45.00   30.90
   4  -3   7   35.80   27.00
  -4  -3  -7   47.70   26.50
  -4   3   7   36.80   30.60
  -4   3   7   40.30   33.90
   4  -3  -7   74.99   28.70
  -4   3  -7   52.29   29.60
   4   3   7   64.69   29.80
   4  -3  -7   58.99   14.20
  -4  -3   7   56.69   33.40
   4  -3  -7   81.79   18.00
  -4  -3   7   78.59   28.50
   4  -3  -7   43.40   13.10
  -4   3  -7   43.40   32.70
   4  -3  -7   73.99   16.90
   0  -4   7   70.89   15.40
   0  -4  -7   34.70   17.20
   0  -4   7   81.19   19.00
   0   4  -7   53.79   18.60
   0  -4   7   56.19    9.20
   0   4   7   64.89   14.20
   0  -4  -7   54.99   11.50
   0  -4  -7   27.70   12.80
   0  -4   7   24.40   10.10
   0   4  -7   50.09   14.00
   0   4  -7   36.90   14.20
   0   4   7   43.20   13.60
   0   4   7   47.40   15.60
   0  -4   7   31.80   13.80
   0   4   7   53.59   19.40
   0   4  -7   59.19   14.60
   0   4  -7   83.19   16.40
   0  -4  -7   44.90   12.90
   0  -4   7   34.30   14.40
   0  -4  -7   60.49   12.20
   0  -4   7   52.19   12.20
   0   4   7   49.10   12.90
  -1   4   7  174.78   13.10
  -1   4   7  153.48   26.20
  -1  -4  -7  185.98   23.50
  -1  -4  -7  153.58   19.50
   1   4  -7  211.48   31.00
  -1   4   7  161.78   28.90
  -1   4   7  199.28   21.30
  -1  -4  -7  188.38   19.80
  -1  -4  -7  137.49   23.70
   1  -4   7  176.18   20.80
   1   4  -7  172.48   21.70
   1  -4   7  200.18   23.70
   1   4  -7  195.38   22.60
   1   4  -7  131.89   20.50
  -1   4   7  175.58   14.60
  -1  -4  -7  161.38   25.80
   1  -4   7  168.98   20.90
  -1   4   7  185.48   18.90
   1  -4   7  174.28   26.90
   1  -4   7  155.08   15.40
   1   4   7  175.68   25.40
  -1   4  -7  170.48   15.80
   1  -4  -7  152.58   22.40
  -1   4  -7  199.68   23.50
  -1   4  -7  171.98   26.30
  -1   4  -7  184.78   21.60
   1  -4  -7  189.38   19.60
  -1  -4   7  170.38   25.20
  -1   4  -7  181.18   24.20
   1   4   7  161.48   23.50
  -1   4  -7  159.28   20.20
   1  -4  -7  175.08   25.90
  -1  -4   7  152.08   21.70
   1  -4  -7  239.88   41.40
   1  -4  -7  128.49   20.30
   1  -4  -7  183.38   20.80
  -1  -4   7  149.59   24.30
  -1  -4   7  197.18   21.60
  -1  -4   7  141.29   20.60
   1   4   7  212.88   29.30
  -1  -4   7  183.88   20.40
  -1  -4   7  120.99   20.20
   1   4   7  180.98   13.60
  -1  -4   7  197.18   19.70
  -1   4  -7  155.48   23.30
  -2   4   7  322.77   28.70
   2   4  -7  256.27   27.10
  -2  -4  -7  291.67   22.20
  -2   4   7  241.18   22.10
   2  -4   7  255.37   29.50
  -2   4   7  243.98   29.50
   2  -4   7  248.18   33.20
  -2   4   7  282.97   36.80
  -2  -4  -7  311.77   28.70
   2  -4   7  251.07   25.60
  -2  -4  -7  275.17   31.90
  -2  -4  -7  254.77   34.50
  -2  -4  -7  255.97   22.00
   2   4  -7  277.27   26.00
  -2  -4  -7  260.57   21.40
  -2  -4  -7  267.47   17.90
   2  -4   7  294.77   29.10
  -2  -4   7  217.28   23.40
  -2  -4   7  245.38   20.60
  -2  -4   7  234.48   29.70
   2  -4  -7  234.78   24.80
  -2   4  -7  276.17   29.10
   2   4   7  227.18   36.60
  -2  -4   7  264.97   33.10
   2  -4  -7  307.57   32.10
   2   4   7  289.77   34.10
  -2   4  -7  178.48   27.00
  -2  -4   7  277.67   31.40
  -2   4  -7  280.27   34.30
  -2   4  -7  277.87   24.30
   2  -4  -7  301.47   28.80
   2  -4  -7  284.37   22.90
  -3  -4  -7  151.98   31.90
  -3  -4  -7  124.29   16.70
   3  -4   7  125.39   18.60
  -3  -4  -7  105.69   13.80
   3  -4   7  119.19   26.20
   3   4  -7   97.19   19.20
   3   4  -7  114.09   21.10
  -3   4   7  121.79   28.30
   3  -4   7   85.59   21.60
  -3   4   7  107.59   17.00
  -3   4   7  106.39   31.80
  -3  -4  -7  139.99   22.70
  -3  -4   7  100.19   28.00
   3  -4  -7  116.69   27.40
   3  -4  -7  108.69   30.60
   3  -4  -7  125.59   21.70
   3  -4  -7   94.99   17.10
  -3   4  -7   42.30   32.20
   3  -4  -7  138.59   20.20
  -3  -4   7  149.09   35.30
  -3   4  -7  119.79   28.30
  -3   4  -7  154.18   32.20
  -4   4   7  237.18   40.50
   4   4  -7  269.07   36.70
  -4   4   7  214.38   47.10
   4   4  -7  191.98   35.00
  -4  -4  -7  201.38   45.80
   4  -4   7  291.97   40.20
  -4  -4   7  365.16   60.39
   4  -4  -7  187.38   31.50
  -4   4  -7  196.48   45.10
  -4  -4   7  192.68   43.70
  -4   4  -7  231.28   41.70
   4   4   7  212.08   43.10
   0   5   7   39.20   15.90
   0   5  -7   22.50   16.00
   0  -5   7   44.30   18.60
   0  -5   7   28.70   14.70
   0  -5   7   39.50   15.00
   0  -5   7   24.90   14.60
   0  -5   7   21.80   10.70
   0   5  -7   33.90   18.20
   0   5   7   44.30   26.60
   0  -5  -7   26.60   14.80
   0  -5  -7   40.30   13.50
   0   5  -7   48.80   15.30
   0   5   7   36.70   12.00
   0   5   7   45.60   14.80
   0  -5   7   75.29   27.80
   0  -5  -7   32.60   21.10
  -1   5   7   17.10   10.80
  -1   5   7   17.20   18.70
  -1   5   7   22.60   11.90
   1  -5   7   11.40   18.60
   1  -5   7    6.90   13.40
  -1   5   7   11.40   10.70
  -1  -5  -7   30.10   13.60
   1  -5   7   -1.70   22.20
   1  -5   7  -13.50   17.00
  -1  -5  -7   43.90   20.30
  -1  -5  -7   25.90   18.80
   1   5  -7   19.50   14.90
   1  -5   7   -2.80   10.80
  -1  -5  -7   23.90   16.00
  -1  -5   7   22.10   14.50
  -1  -5   7   40.00   19.90
  -1   5  -7   19.00   15.10
   1   5   7   49.00   29.30
  -1  -5   7   16.70   15.60
  -1   5  -7   -7.90   14.40
   1   5   7   16.10   19.50
  -1  -5   7    7.20   19.50
   1  -5  -7   39.70   18.70
  -1   5  -7    7.90   13.80
   1  -5  -7   21.60   21.60
   1  -5  -7    5.00   14.30
   1   5   7   18.90   18.70
   2   5  -7  188.08   31.00
  -2  -5  -7  170.08   29.00
  -2   5   7  124.49   23.00
  -2  -5  -7  108.49   17.80
   2  -5   7  111.09   14.60
  -2  -5  -7  113.29   17.20
  -2   5   7  108.89   36.20
   2  -5   7  139.39   24.30
  -2   5   7  125.29   21.80
   2  -5   7  163.18   28.30
  -2  -5  -7  106.59   20.50
  -2  -5  -7   93.89   27.20
   2  -5   7  130.69   26.10
   2   5  -7  136.69   23.40
  -2  -5   7  119.99   19.50
   2  -5  -7  171.28   28.30
   2  -5  -7  146.99   22.20
   2   5   7  125.89   25.90
  -2   5  -7  125.29   12.40
  -2   5  -7  107.89   22.70
  -2   5  -7  132.79   29.40
  -2  -5   7  127.39   25.60
  -2   5  -7   97.59   16.50
   2  -5  -7  134.89   25.00
  -2  -5   7  115.59   27.70
  -3   5   7  345.27   49.20
   3  -5   7  313.57   44.30
   3  -5   7  318.97   37.00
   3   5  -7  333.97   40.30
  -3   5   7  329.47   30.50
  -3   5   7  408.26   57.99
   3  -5   7  260.77   42.20
  -3  -5  -7  309.27   52.59
   3  -5   7  236.98   33.70
   3  -5  -7  350.46   40.20
  -3  -5   7  331.67   50.59
  -3   5  -7  405.66   56.49
  -3  -5   7  388.16   52.79
   3  -5  -7  408.56   37.30
   3   5   7  260.77   44.20
   3  -5  -7  354.76   34.80
   0  -6   7  288.97   47.20
   0   6  -7  305.47   41.20
   0   6   7  351.06   39.90
   0  -6  -7  351.56   34.20
   0  -6   7  324.47   36.60
   0  -6  -7  388.86   49.00
   0   6  -7  330.77   61.39
   0  -6   7  370.76   35.70
   0   6   7  317.87   36.50
   0   6  -7  334.37   40.00
   0  -6  -7  334.87   35.60
   0  -6   7  314.57   35.40
  -1  -6  -7   55.49   27.20
   1  -6   7   73.49   22.90
   1   6  -7   42.70   21.30
  -1  -6  -7   48.00   23.70
   1  -6   7   60.99   30.00
  -1   6   7   44.80   16.50
   1  -6   7   20.10   20.10
   1   6  -7   17.00   20.50
  -1   6   7   72.39   30.60
  -1   6   7   19.20   22.60
  -1  -6  -7   59.09   21.40
  -1   6  -7   40.40   20.90
  -1  -6   7   23.70   19.70
   1  -6  -7   30.10   16.90
   1  -6  -7   72.79   26.70
  -1  -6   7   21.30   23.20
  -1   6  -7   63.19   23.70
   1   6   7   59.89   26.30
  -1  -6   7   10.70   28.00
  -1  -6   7   76.69   22.50
   1  -6  -7   48.10   21.20
   1   6   7   38.30   15.30
   2  -6   7   81.99   24.60
   2  -6   7   52.99   31.10
   2  -6   7   79.09   24.30
  -2   6   7   89.19   20.10
  -2   6   7   91.39   31.10
  -2  -6  -7   90.69   22.80
  -2   6   7   99.79   31.90
  -2  -6  -7  129.69   32.60
   2   6  -7  108.69   25.10
   2   6  -7   56.09   26.70
  -2  -6  -7   78.89   20.00
  -2   6  -7  135.19   34.60
  -2  -6   7  161.28   32.50
   2  -6  -7  130.69   27.20
  -2  -6   7   83.69   30.10
   2  -6  -7  144.59   28.20
   2   6   7   82.19   35.90
   3  -6   7  -22.30   30.50
  -3   6   7   43.50   41.10
   3   6  -7   63.79   27.10
  -3  -6  -7   57.49   43.80
   3  -6   7   64.49   31.90
   3   6  -7  104.89   33.10
   3  -6   7  111.09   29.20
   3  -6  -7   48.20   27.90
  -3  -6   7   42.30   35.10
  -3   6  -7  107.29   48.00
  -3  -6   7   -8.00   37.60
   3   6   7   61.29   42.80
   3  -6  -7   45.60   26.60
   3  -6  -7   84.09   29.00
   0  -7   7   66.09   45.40
   0  -7   7  162.08   31.70
   0  -7   7  134.49   31.20
   0   7  -7  157.38   32.80
   0  -7  -7  151.08   39.50
   0  -7  -7  119.89   28.70
   0   7  -7  100.79   30.50
   0  -7  -7  113.49   30.90
   0   7   7   72.29   30.50
   1  -7   7   33.20   36.90
  -1   7   7   34.30   20.10
   1  -7   7   40.50   27.60
   1   7  -7  -23.40   24.00
   1   7  -7   29.10   26.60
  -1  -7  -7   51.19   32.70
   1  -7   7    4.00   26.90
  -1   7   7    9.10   32.10
  -1  -7  -7   28.20   28.10
  -1  -7   7  -21.30   27.40
   1   7   7   76.29   35.50
   1  -7  -7   -6.30   33.00
  -1  -7   7    9.00   24.00
   1  -7  -7  -10.40   23.50
  -1   7  -7   41.70   32.00
  -1   7  -7   64.29   31.40
   1  -7  -7   -2.80   24.60
   0   0  -8 9240.28  229.58
   0   0   8 9614.04  228.38
   0   0  -8 9445.05  231.28
   0   0  -8 9301.47  232.78
   0   0  -8 9113.59  234.28
   0   0   8 9575.94  229.28
   0   0   8 9999.00  231.78
   0   0   8 9536.85  227.88
   0   0   8 9517.15  230.38
   0   0  -8 9965.60  228.78
   0   0   8 9719.43  230.38
   0   0  -8 9684.93  230.08
   0   0   8 9638.44  228.08
   0   0   8 9238.88  228.48
   0   0  -8 9869.71  229.98
  -1   0   8 1610.94   48.80
  -1   0   8 1715.63   53.19
   1   0  -8 1707.63   51.59
  -1   0   8 1667.53   43.20
  -1   0   8 1599.14   44.80
  -1   0  -8 1667.23   51.29
  -1   0   8 1590.04   52.79
   1   0  -8 1707.93   45.10
   1   0  -8 1623.44   45.30
   1   0  -8 1570.64   50.39
   1   0   8 1631.44   49.99
  -1   0  -8 1518.65   47.50
  -1   0   8 1553.34   51.59
   1   0  -8 1612.24   53.09
   1   0  -8 1619.14   44.50
  -1   0   8 1684.13   47.80
  -1   0  -8 1661.13   49.90
   1   0  -8 1600.04   51.59
   1   0   8 1615.84   43.70
   1   0   8 1645.74   50.29
   1   0   8 1528.65   52.99
   1   0   8 1597.34   50.69
   1   0   8 1608.04   45.90
   1   0  -8 1590.64   39.40
  -1   0  -8 1645.54   43.50
   1   0  -8 1609.14   47.40
   2   0  -8 6269.17  152.28
  -2   0  -8 6175.68  156.98
   2   0  -8 6171.78  165.98
   2   0  -8 6233.68  160.08
   2   0   8 6086.79  153.28
  -2   0   8 6248.47  150.78
   2   0  -8 6175.08  164.58
  -2   0   8 6171.78  163.48
   2   0  -8 6287.87  154.28
   2   0   8 6309.47  163.38
   2   0  -8 6373.36  157.08
  -2   0  -8 6041.10  160.68
  -2   0  -8 6190.88  162.58
   2   0   8 6237.68  149.29
   2   0  -8 6502.65  171.68
   2   0  -8 5993.60  147.09
   2   0  -8 6276.87  150.28
   2   0  -8 6175.78  149.39
   2   0   8 6204.28  167.18
   2   0  -8 6254.27  159.58
   2   0  -8 6239.68  149.29
   2   0   8 5882.41  156.68
   2   0   8 6348.27  170.68
  -2   0   8 6098.69  169.18
   2   0   8 6250.17  159.08
   2   0  -8 6305.67  162.88
   2   0   8 6401.46  155.48
  -2   0  -8 6349.67  165.68
  -2   0  -8 6343.46  149.29
  -2   0   8 6078.29  159.18
   3   0   8   40.20   10.90
  -3   0  -8   23.90   13.60
   3   0  -8   31.30    5.70
  -3   0   8   30.50   13.50
   3   0  -8   39.80   13.70
   3   0   8   -1.70   12.70
   3   0  -8   19.80   13.00
   3   0  -8    8.20   14.40
   3   0  -8   14.40    9.40
   3   0   8   14.50    6.30
   3   0   8   38.30   16.00
   3   0   8   26.80    9.30
   3   0  -8    5.00   12.20
   3   0  -8   24.20    5.70
  -3   0   8   42.20   16.10
   3   0   8   25.40    9.80
  -3   0  -8   37.60   17.00
   3   0  -8   41.50   17.00
   3   0   8   40.90   18.00
  -3   0   8    2.00   17.00
   3   0  -8    6.90   15.90
   4   0  -8  447.36   39.90
  -4   0  -8  384.16   41.50
   4   0   8  503.05   25.10
  -4   0   8  471.15   49.90
   4   0   8  448.66   24.90
  -4   0   8  416.06   45.90
   4   0  -8  448.86   28.20
  -4   0   8  523.05   43.50
   4   0  -8  455.95   18.80
   4   0  -8  512.15   39.60
   4   0  -8  449.36   18.90
   4   0  -8  443.96   36.60
  -4   0  -8  430.26   44.80
   4   0   8  469.35   41.80
   4   0   8  486.45   47.90
  -5   0  -8   41.00   31.60
   5   0   8  -38.50   27.40
  -5   0  -8    7.00   37.70
   5   0   8   -1.50   34.30
   5   0  -8   25.70   29.00
   0  -1  -8 2533.05   66.79
   0   1  -8 2435.26   67.49
   0  -1  -8 2367.96   65.59
   0   1  -8 2494.25   68.69
   0   1   8 2430.06   64.89
   0  -1  -8 2437.66   69.59
   0   1  -8 2574.14   66.59
   0  -1   8 2434.86   66.19
   0   1  -8 2543.55   64.49
   0  -1   8 2360.66   67.79
   0   1   8 2445.96   65.89
   0  -1   8 2217.88   71.99
   0  -1  -8 2460.45   67.09
   0   1  -8 2421.86   67.59
   0  -1  -8 2440.16   67.99
   0   1   8 2461.55   61.49
   0  -1   8 2419.66   69.29
   0  -1   8 2511.45   66.29
   0   1  -8 2552.34   70.39
   0  -1  -8 2594.64   66.49
   0  -1   8 2435.56   66.99
   0  -1   8 2413.96   65.49
   0   1   8 2573.14   70.19
   0   1   8 2417.46   68.09
   0  -1   8 2422.86   66.19
  -1   1   8 1830.72   46.00
   1   1  -8 1959.60   60.19
   1   1  -8 1861.21   50.59
   1   1  -8 1871.71   53.99
  -1   1   8 1786.12   57.79
   1   1  -8 1892.61   55.39
  -1  -1  -8 1882.61   53.29
  -1   1   8 1918.61   55.19
   1   1  -8 1950.30   52.99
  -1  -1  -8 1892.71   54.29
  -1  -1  -8 1890.51   47.60
  -1  -1  -8 1927.51   59.19
   1   1  -8 1965.90   60.49
   1  -1   8 1815.32   49.99
   1  -1   8 1848.72   55.39
  -1  -1  -8 1911.11   57.29
  -1   1   8 1798.32   47.20
   1  -1   8 1931.41   54.69
  -1   1   8 1912.81   50.49
   1  -1   8 1855.21   60.19
   1   1  -8 1928.21   53.69
   1  -1   8 1797.52   56.99
   1   1  -8 1866.51   55.49
  -1   1   8 1872.91   60.09
  -1  -1  -8 1832.72   56.69
   1  -1   8 1907.81   55.19
   1  -1   8 1802.12   56.69
  -1   1   8 1826.62   57.09
  -1   1  -8 1903.31   60.89
   1  -1  -8 1896.71   47.70
   1   1   8 1924.91   57.39
   1  -1  -8 1826.02   45.90
  -1  -1   8 1931.11   50.99
   1  -1  -8 1888.11   56.29
  -1  -1   8 1832.72   57.29
  -1   1  -8 1853.81   54.49
  -1   1  -8 1924.51   54.49
   1   1   8 1958.50   58.99
  -1  -1   8 1805.52   53.59
   1  -1  -8 1886.81   60.69
  -1   1  -8 1909.11   56.29
  -1   1  -8 1840.12   49.30
   1  -1  -8 1977.70   62.29
  -1  -1   8 1782.82   59.99
   1  -1  -8 1898.91   52.19
   1   1   8 1926.21   57.89
   1  -1  -8 1903.21   55.29
  -1  -1   8 1859.71   58.29
   1   1   8 1927.51   53.79
  -1   1  -8 1875.91   57.29
   1   1   8 1894.01   54.79
  -1  -1   8 1764.42   50.09
  -1  -1   8 1905.91   51.59
  -1  -1   8 1874.21   55.09
  -1   1  -8 1845.22   56.09
   2  -1   8 1534.55   59.69
   2   1  -8 1652.13   59.89
   2   1  -8 1623.84   47.10
  -2  -1  -8 1583.14   58.39
  -2   1   8 1554.74   54.79
   2   1  -8 1590.14   52.09
   2   1  -8 1643.44   46.30
  -2  -1  -8 1593.24   54.79
  -2  -1  -8 1725.83   46.80
   2  -1   8 1671.43   60.19
   2  -1   8 1640.34   48.80
   2   1  -8 1634.14   50.19
   2   1  -8 1646.24   60.59
   2   1  -8 1620.54   46.20
  -2   1   8 1610.34   62.39
  -2  -1  -8 1650.23   45.40
   2   1  -8 1635.44   56.09
   2   1  -8 1616.94   48.80
  -2  -1  -8 1617.54   60.09
   2  -1   8 1683.63   56.09
  -2  -1  -8 1626.64   49.40
   2  -1   8 1625.44   53.79
   2  -1   8 1679.63   49.70
   2  -1   8 1640.74   42.40
  -2   1   8 1640.74   47.80
  -2   1   8 1507.75   58.99
   2  -1   8 1652.13   52.49
   2  -1   8 1693.83   50.59
  -2   1   8 1628.54   53.89
   2   1  -8 1589.94   60.49
   2   1  -8 1656.43   57.49
   2  -1  -8 1608.24   63.59
  -2   1  -8 1609.84   62.29
  -2   1  -8 1625.84   57.09
   2  -1  -8 1588.54   55.69
   2  -1  -8 1656.93   50.99
   2  -1  -8 1639.44   59.89
   2   1   8 1666.83   60.69
   2  -1  -8 1648.94   53.79
   2   1   8 1649.44   50.19
  -2   1  -8 1603.94   58.59
  -2  -1   8 1620.04   47.60
  -2   1  -8 1627.84   52.09
  -2  -1   8 1579.74   55.49
   2   1   8 1646.64   53.19
  -2  -1   8 1555.34   58.19
  -2   1  -8 1511.45   56.19
   2  -1  -8 1590.04   48.00
  -2  -1   8 1634.14   57.29
   2  -1  -8 1523.65   46.70
   2   1   8 1704.83   60.69
   2   1   8 1668.63   59.59
   2  -1  -8 1626.84   40.90
  -2  -1   8 1626.34   62.69
  -2   1  -8 1683.03   45.70
   2  -1  -8 1592.44   55.79
   2   1   8 1637.74   48.80
   2  -1  -8 1571.74   43.20
   3  -1   8  221.88   21.00
   3  -1   8  227.08   18.60
   3  -1   8  191.18   23.20
   3   1  -8  235.78   16.80
   3   1  -8  192.98   14.30
  -3   1   8  187.38   29.80
   3   1  -8  231.38   28.00
   3  -1   8  211.28   18.20
  -3   1   8  227.48   27.60
  -3  -1  -8  214.68   28.60
   3  -1   8  167.48   24.70
  -3  -1  -8  200.38   21.60
   3   1  -8  196.48   25.10
   3   1  -8  175.38   26.50
   3  -1   8  222.08   29.10
   3   1  -8  176.48   25.90
   3  -1   8  198.78   31.50
  -3  -1  -8  200.88   25.90
  -3  -1  -8  236.68   20.60
  -3   1   8  218.58   29.60
   3  -1  -8  246.88   26.40
   3  -1  -8  205.28   26.80
  -3  -1   8  196.48   31.20
   3  -1  -8  196.18   13.50
   3   1   8  194.08   28.00
  -3   1  -8  210.78   28.20
   3   1   8  203.78   29.20
   3  -1  -8  206.28   12.30
  -3  -1   8  248.38   30.70
  -3   1  -8  231.38   31.90
   3  -1  -8  233.08   26.40
   3   1   8  209.08   29.70
   3   1   8  225.08   19.10
   3   1   8  180.88   19.30
   3  -1  -8  200.08   21.70
  -3   1  -8  227.88   29.50
   3   1   8  228.08   18.70
   3  -1  -8  196.48   13.10
  -3   1  -8  148.49   18.80
   3  -1  -8  211.68   18.60
  -3  -1   8  193.68   29.10
   4   1  -8  197.58   31.40
   4  -1   8  190.88   32.40
  -4  -1  -8  200.98   30.60
   4  -1   8  178.28   30.70
  -4  -1  -8  181.78   29.90
   4   1  -8  306.57   38.00
   4  -1   8  220.98   12.40
   4  -1   8  224.08   22.30
   4   1  -8  224.58   16.80
  -4   1   8  232.08   32.40
  -4   1   8  284.07   41.90
  -4   1   8  214.68   35.20
   4   1  -8  222.18   28.30
   4   1  -8  244.38   35.70
   4  -1  -8  226.58   25.20
   4  -1  -8  205.68   19.70
  -4   1  -8  180.68   32.80
  -4   1  -8  204.08   32.10
   4  -1  -8  204.38   15.70
  -4  -1   8  273.47   40.60
   4   1   8  250.07   23.50
   4   1   8  254.37   41.30
  -4  -1   8  262.67   43.10
  -4  -1   8  151.48   29.30
   4  -1  -8  198.98   27.50
   4   1   8  233.88   35.40
   5  -1   8  -45.50   26.40
  -5   1   8   28.40   40.60
   5  -1   8   67.29   30.50
  -5  -1  -8   44.60   39.60
   5   1  -8   18.50   31.20
   5   1  -8   65.59   40.10
   5  -1  -8   58.69   31.50
  -5  -1   8   30.40   36.40
  -5   1  -8  -61.79   35.00
  -5   1  -8  -47.60   33.60
   5   1   8    4.40   36.40
  -5  -1   8   61.99   38.40
   5   1   8  -27.50   33.10
   0   2  -8   23.00    8.20
   0  -2   8   27.10    7.90
   0  -2  -8   31.50    7.80
   0   2   8   50.99    9.40
   0   2   8   15.20    8.90
   0  -2   8   29.10    8.00
   0   2  -8   23.60    7.10
   0   2   8   20.00    6.70
   0   2  -8   21.20    8.50
   0   2   8   27.10    7.10
   0  -2  -8   21.30    8.40
   0  -2   8   22.60    8.10
   0   2  -8   27.30    6.70
   0  -2   8   36.40    8.00
   0   2  -8   28.30    7.50
   0  -2   8   25.40    6.70
   0   2  -8   34.20    8.20
   0   2  -8   29.70    6.10
   0  -2   8   17.60    9.00
   0   2   8   31.50    8.60
   0   2  -8   23.10    6.60
   0  -2  -8   30.00    6.50
   0  -2  -8   27.20    7.00
  -1   2   8  959.10   24.70
   1   2  -8  996.40   34.60
  -1  -2  -8  964.20   37.80
   1  -2   8 1005.80   35.40
  -1   2   8 1003.20   33.40
  -1   2   8  990.30   30.00
   1   2  -8  970.20   37.00
  -1  -2  -8  991.30   30.40
   1   2  -8  961.70   38.30
  -1   2   8  977.40   36.80
   1  -2   8  999.40   36.00
  -1  -2  -8  990.20   39.50
   1  -2   8 1007.20   37.00
   1   2  -8 1004.60   37.00
  -1   2   8  978.60   37.90
   1   2  -8  960.00   35.90
  -1  -2  -8 1007.40   35.90
  -1  -2  -8  970.60   34.60
  -1   2   8 1005.40   31.00
  -1   2   8 1011.10   42.50
   1  -2   8  994.20   37.10
   1  -2   8 1017.80   39.60
   1   2  -8 1018.80   37.30
   1   2  -8 1037.90   42.30
  -1   2   8 1013.70   38.00
  -1  -2  -8 1059.19   38.30
   1  -2  -8  949.21   37.80
  -1  -2   8  975.30   33.50
   1  -2  -8  929.61   33.70
   1   2   8 1077.49   38.10
  -1   2  -8  995.40   30.10
   1   2   8  982.70   39.60
  -1  -2   8  936.31   33.90
  -1  -2   8  945.51   38.80
   1  -2  -8 1025.30   42.30
  -1   2  -8  927.51   36.40
  -1   2  -8  973.40   36.10
  -1  -2   8 1005.50   33.90
  -1   2  -8 1019.10   41.10
  -1   2  -8  924.81   37.10
  -1   2  -8 1023.30   39.60
  -1   2  -8  978.00   36.60
   1   2   8 1029.20   35.90
  -1  -2   8 1011.70   39.10
  -1  -2   8  913.11   37.70
   1   2   8  990.60   40.10
  -1  -2   8  969.70   36.10
  -1  -2   8  971.90   40.60
  -1  -2   8 1055.49   34.90
  -2  -2  -8  202.48   14.30
  -2   2   8  194.48   25.20
   2  -2   8  180.88   19.90
   2   2  -8  199.68   17.80
   2   2  -8  206.18   24.90
  -2   2   8  212.28   24.00
   2   2  -8  168.68   28.00
  -2  -2  -8  213.88   14.50
  -2   2   8  178.38   14.30
   2  -2   8  213.48   19.70
   2  -2   8  192.58   18.70
   2   2  -8  202.38   19.00
   2   2  -8  209.08   16.20
   2  -2   8  198.88   18.20
  -2   2   8  221.58   19.20
   2  -2   8  210.98   18.50
  -2  -2  -8  202.78   18.70
   2   2  -8  217.38   14.00
  -2   2   8  207.08   17.60
  -2   2   8  208.48   18.10
   2  -2   8  188.58   24.00
   2   2  -8  195.98   15.40
  -2  -2  -8  241.28   24.10
  -2  -2  -8  195.78   15.40
   2   2   8  207.18   28.10
  -2  -2   8  208.68    9.20
  -2  -2   8  200.88   26.30
   2  -2  -8  176.88   24.80
  -2   2  -8  238.18   22.70
  -2   2  -8  188.28   21.40
   2  -2  -8  200.18   16.50
   2   2   8  236.98   18.10
   2  -2  -8  225.58   17.20
  -2  -2   8  222.88   22.50
   2  -2  -8  198.48   12.00
  -2  -2   8  167.98   21.90
  -2  -2   8  250.87   20.00
   2  -2  -8  211.38   16.00
   2   2   8  197.98   23.30
   2   2   8  176.38   27.00
  -2  -2   8  214.08    9.30
  -2   2  -8  180.48   23.90
  -2   2  -8  278.17   22.50
  -2   2  -8  227.98   15.50
   2  -2  -8  227.68   17.80
   2  -2  -8  224.98   28.50
  -2  -2   8  207.48    9.10
  -2  -2   8  235.98   24.80
   3  -2   8  629.54   31.50
  -3  -2  -8  611.84   42.80
   3   2  -8  569.44   29.40
   3   2  -8  648.64   31.80
  -3   2   8  667.83   45.90
   3  -2   8  590.94   34.20
   3  -2   8  567.44   40.80
  -3   2   8  663.53   46.10
   3  -2   8  595.14   27.80
   3  -2   8  632.74   33.20
   3   2  -8  578.14   34.10
   3  -2   8  626.24   40.60
   3  -2   8  622.24   34.60
  -3  -2  -8  581.14   33.10
   3   2  -8  597.14   45.00
   3   2  -8  593.14   27.90
  -3  -2  -8  681.73   37.90
  -3   2   8  613.54   35.10
   3  -2  -8  589.74   43.30
   3  -2  -8  647.24   32.10
   3  -2  -8  612.54   27.20
  -3  -2   8  618.54   42.70
  -3  -2   8  608.84   27.60
  -3   2  -8  573.44   41.50
  -3   2  -8  607.54   42.10
   3  -2  -8  568.94   34.30
  -3   2  -8  627.44   32.90
   3   2   8  655.73   31.80
   3  -2  -8  581.94   24.00
   3  -2  -8  622.34   27.80
  -3  -2   8  668.43   44.80
  -3   2  -8  678.23   41.50
  -3  -2   8  634.64   40.50
   3  -2  -8  574.64   35.30
   3  -2  -8  588.94   26.30
   3   2   8  627.64   34.60
   3   2   8  513.05   39.60
   4  -2   8   22.50   25.70
   4  -2   8   62.99   16.40
   4   2  -8   57.89   26.80
  -4   2   8   28.40   27.40
  -4  -2  -8   12.10   23.30
   4  -2   8   29.60   19.90
   4   2  -8   55.59   13.50
   4   2  -8   54.19   29.10
  -4  -2  -8   53.29   27.80
   4   2  -8   38.20   18.00
  -4   2   8   38.90   26.70
   4  -2  -8   72.89   14.30
  -4   2  -8   65.19   27.00
   4   2   8   72.69   19.00
  -4   2  -8   48.50   29.40
  -4  -2   8   31.90   28.20
   4  -2  -8   61.99   13.00
   4  -2  -8   37.40   15.90
   4   2   8   38.40   27.10
   4  -2  -8   46.30   25.10
   4   2   8   70.19   26.40
  -4  -2   8   45.00   29.10
   0  -3   8 4137.09  114.79
   0  -3   8 4098.29  115.69
   0  -3  -8 4150.58  108.79
   0   3  -8 4151.58  116.89
   0   3   8 4398.46  114.29
   0  -3   8 4334.57  111.79
   0   3  -8 4187.98  120.29
   0   3  -8 4268.47  105.89
   0  -3  -8 4362.96  119.39
   0  -3   8 4233.28  120.59
   0   3  -8 4086.99  116.99
   0  -3  -8 4038.60  113.09
   0   3   8 4014.80  113.09
   0   3   8 4086.69  112.09
   0   3   8 4222.98  112.99
   0  -3  -8 4222.28  120.19
   0   3  -8 4214.98  112.39
   0  -3  -8 4302.77  110.99
   0  -3   8 4233.38  116.49
   0   3  -8 4326.97  116.89
  -1   3   8  212.78   18.00
  -1  -3  -8  173.28   15.90
   1  -3   8  193.38   20.20
   1   3  -8  189.58   17.60
  -1  -3  -8  179.88   21.00
   1  -3   8  210.38   20.30
  -1   3   8  198.38   10.00
  -1  -3  -8  182.98   23.10
  -1   3   8  199.58   15.70
   1   3  -8  208.98   18.50
  -1  -3  -8  226.28   20.30
   1   3  -8  187.48   21.70
  -1  -3  -8  199.78   16.50
   1   3  -8  203.38   18.40
   1  -3   8  226.58   23.20
   1  -3   8  201.08   17.70
  -1   3   8  204.78    9.90
   1   3  -8  209.98   19.20
   1   3  -8  192.78   21.00
   1  -3   8  213.98   20.00
   1  -3   8  185.48   18.60
  -1  -3  -8  227.88   16.00
  -1   3   8  231.98   22.80
  -1   3   8  175.68   16.30
   1   3  -8  266.87   26.70
  -1   3   8  236.58   23.00
  -1   3  -8  173.18   17.60
  -1   3  -8  219.78   22.80
   1   3   8  173.38   19.60
   1   3   8  134.09   24.70
   1  -3  -8  189.38   15.70
  -1   3  -8  202.58   19.50
   1  -3  -8  204.28   20.90
  -1  -3   8  213.38   17.80
  -1  -3   8  222.38   18.70
  -1  -3   8  179.98   15.30
   1   3   8  163.28   18.90
   1  -3  -8  159.38   21.60
  -1   3  -8  195.78   18.90
   1   3   8  203.88   18.50
  -1   3  -8  212.68   14.60
  -1  -3   8  174.88   18.70
  -1  -3   8  177.78   21.00
  -1   3  -8  213.58   19.30
   1  -3  -8  204.28   17.50
   1   3   8  180.08   21.60
   1   3   8  190.08   21.60
   2  -3   8  988.00   44.70
  -2  -3  -8  998.90   46.20
  -2  -3  -8  981.50   28.50
   2   3  -8 1002.50   42.70
  -2   3   8  983.70   52.69
   2  -3   8 1022.60   47.50
  -2  -3  -8  994.70   38.40
  -2   3   8 1004.90   40.60
   2   3  -8  964.30   40.70
   2  -3   8  946.51   38.80
  -2   3   8  973.20   46.30
  -2  -3  -8 1000.60   39.80
   2  -3   8 1032.10   45.80
   2   3  -8  944.01   41.10
  -2   3   8  991.40   39.60
  -2   3   8  977.70   32.00
  -2  -3  -8  982.70   36.80
  -2  -3  -8  946.61   47.90
  -2  -3  -8  954.90   36.90
   2  -3   8  972.50   42.90
   2  -3   8 1009.90   45.50
   2   3   8  941.21   47.90
  -2  -3   8  982.30   34.20
  -2   3  -8  986.50   45.20
  -2   3  -8 1073.89   46.70
  -2  -3   8 1035.30   35.10
   2  -3  -8  927.21   35.20
   2  -3  -8 1018.20   42.80
   2   3   8 1019.60   46.90
   2   3   8 1004.20   41.40
   2  -3  -8 1001.80   38.80
  -2  -3   8  954.20   47.00
   2   3   8  959.60   46.60
  -2  -3   8  965.10   49.40
  -2   3  -8  991.50   50.19
  -2   3  -8  988.60   39.50
   2  -3  -8  986.40   36.80
  -2  -3   8  990.80   33.70
   2   3   8  940.11   50.79
  -2  -3   8  985.10   44.90
  -2   3  -8  934.41   41.90
   3   3  -8   38.30   11.80
   3   3  -8   50.49   15.30
   3  -3   8   71.09   19.00
   3  -3   8   33.30   14.30
  -3   3   8   12.50   24.30
   3  -3   8   33.00   18.10
  -3   3   8   57.39   13.10
   3  -3   8   19.20   16.70
  -3  -3  -8   41.10   19.30
  -3  -3  -8   51.59   19.10
  -3  -3  -8   41.50   22.00
  -3   3   8   53.79   15.40
   3  -3   8   26.50   20.10
  -3   3   8   15.80   19.50
   3  -3  -8   49.10   18.60
  -3   3  -8   64.39   22.90
  -3   3  -8   35.30   20.10
   3  -3  -8    9.70   13.70
  -3  -3   8   30.70   15.80
  -3   3  -8   36.50   24.80
  -3  -3   8   18.00   22.20
   3  -3  -8   35.80   18.30
   3  -3  -8   56.79   11.10
   3  -3  -8   47.40   15.70
   3   3   8   89.69   20.50
   3   3   8   42.40   20.00
   3  -3  -8   53.49   13.60
   4   3  -8   62.89   18.60
  -4   3   8   80.29   30.00
   4  -3   8   67.79   19.70
  -4  -3  -8   20.00   32.30
   4  -3   8   85.29   29.20
   4   3  -8  109.49   21.00
  -4  -3  -8  100.19   28.50
  -4   3   8   67.79   34.50
   4  -3   8   97.49   20.20
  -4  -3   8   47.90   38.40
   4  -3  -8   79.29   14.60
   4  -3  -8   91.19   19.10
  -4   3  -8   23.70   26.20
  -4  -3   8   53.39   27.00
   4   3   8   24.60   30.60
   4  -3  -8   25.80   25.20
  -4   3  -8   74.89   33.60
   0   4   8  373.96   25.90
   0  -4  -8  346.37   22.90
   0   4   8  295.17   25.00
   0  -4  -8  350.06   28.50
   0   4   8  376.46   33.90
   0  -4  -8  328.97   31.20
   0  -4   8  271.27   32.40
   0   4   8  348.17   31.50
   0   4  -8  344.37   26.90
   0   4   8  327.97   24.20
   0  -4   8  341.97   25.00
   0   4   8  369.56   22.40
   0  -4  -8  370.36   24.70
   0   4  -8  306.67   25.60
   0   4  -8  357.36   29.20
   0   4  -8  359.76   30.90
   0  -4   8  377.66   26.10
   0   4  -8  380.56   27.60
   0  -4   8  370.26   26.20
   0  -4   8  375.76   17.80
  -1  -4  -8  846.62   41.30
  -1   4   8  817.22   45.40
  -1  -4  -8  891.01   46.70
   1  -4   8  818.72   38.10
  -1   4   8  839.02   38.00
   1  -4   8  849.72   40.80
   1  -4   8  834.72   46.50
   1  -4   8  870.01   32.50
  -1  -4  -8  855.91   38.60
  -1   4   8  827.42   27.90
  -1  -4  -8  846.82   36.60
  -1   4   8  853.81   37.80
   1   4  -8  881.21   41.90
  -1   4   8  811.22   38.50
   1   4  -8  899.21   48.50
   1  -4   8  839.42   39.00
   1   4  -8  803.92   41.80
  -1   4   8  855.31   30.60
   1   4  -8  863.11   45.80
  -1   4  -8  807.82   45.60
  -1   4  -8  885.61   46.90
  -1  -4   8  847.32   40.30
  -1  -4   8  867.11   40.50
   1  -4  -8  815.52   44.00
   1   4   8  865.91   28.00
   1  -4  -8  892.91   38.80
   1   4   8  806.12   42.50
   1  -4  -8  852.61   39.70
  -1   4  -8  890.41   29.70
   1   4   8  844.02   43.60
  -1   4  -8  925.51   39.60
  -1   4  -8  842.42   37.80
   1  -4  -8  902.31   43.20
  -1  -4   8  812.02   46.30
  -1  -4   8  908.61   41.30
  -1  -4   8  813.52   43.60
  -1   4  -8  873.81   45.20
   1   4   8  854.91   49.50
  -1  -4   8  851.61   37.70
  -1   4  -8  831.32   41.40
  -2   4   8  814.32   41.60
  -2   4   8  887.41   47.90
   2  -4   8  901.51   50.19
   2   4  -8  797.92   43.20
  -2   4   8  832.02   39.30
   2   4  -8  882.51   42.70
  -2  -4  -8  803.02   48.40
  -2  -4  -8  874.81   37.60
   2  -4   8  820.22   39.50
   2  -4   8  839.32   47.00
  -2  -4  -8  871.91   49.00
  -2  -4  -8  841.12   36.20
  -2  -4  -8  899.81   32.10
  -2   4   8  902.61   54.89
  -2  -4  -8  833.22   38.20
  -2  -4  -8  880.41   43.00
   2  -4  -8  822.72   38.10
  -2   4  -8  739.23   41.40
  -2  -4   8  800.02   45.30
   2  -4  -8  927.91   40.90
  -2   4  -8  811.72   49.20
  -2   4  -8  829.42   45.10
  -2  -4   8  838.62   48.40
  -2  -4   8  822.42   35.20
  -2   4  -8  837.72   40.80
  -2  -4   8  848.22   50.79
   2  -4  -8  892.51   45.40
  -2  -4   8  848.82   37.80
  -2  -4   8  838.62   38.80
   2   4   8  829.82   52.69
   2   4   8  975.40   53.29
   3   4  -8  168.78   26.90
  -3  -4  -8  171.58   19.50
  -3   4   8  235.78   40.70
  -3  -4  -8  203.68   19.50
  -3  -4  -8  156.98   33.40
   3  -4   8  161.28   25.40
  -3  -4  -8  171.68   24.20
   3  -4   8  214.18   38.10
   3   4  -8  189.88   28.00
  -3   4   8  200.58   34.30
   3  -4   8  167.78   27.10
  -3   4   8  199.98   26.20
   3  -4  -8  238.88   29.20
  -3  -4   8  234.78   36.10
  -3  -4   8  198.58   39.00
  -3   4  -8  231.78   33.80
   3  -4  -8  223.28   23.40
   3   4   8  238.98   37.30
   3  -4  -8  231.58   26.30
  -3   4  -8  192.68   33.80
  -4   4   8   46.90   37.00
   4  -4   8   89.19   32.20
   4   4  -8   39.30   21.50
  -4  -4  -8   45.80   40.90
   4  -4   8   24.20   25.00
  -4   4   8   52.99   35.70
   4   4  -8   40.30   30.10
  -4   4  -8   57.49   38.80
   4  -4  -8   61.19   19.30
  -4  -4   8   14.20   29.40
  -4  -4   8   50.79   37.30
  -4   4  -8   76.49   35.50
   4   4   8   -6.80   37.50
   4  -4  -8   61.49   24.80
   4  -4  -8   90.69   35.50
   0   5   8  311.97   23.70
   0  -5   8  271.37   27.70
   0  -5  -8  316.97   27.20
   0  -5  -8  273.27   25.40
   0  -5  -8  275.07   36.60
   0   5  -8  291.87   30.00
   0  -5   8  256.47   27.70
   0  -5   8  276.47   19.30
   0  -5   8  208.68   27.60
   0  -5   8  280.17   38.10
   0   5  -8  245.58   33.90
   0   5   8  317.87   29.00
   0  -5   8  254.87   35.10
   0   5  -8  294.07   28.80
   0   5   8  280.27   28.30
  -1  -5  -8 1144.69   50.19
   1  -5   8 1118.79   42.10
  -1  -5  -8 1162.28   49.00
   1  -5   8 1140.49   49.70
   1  -5   8  915.51   52.59
   1  -5   8  942.71   60.59
  -1   5   8 1124.49   49.00
   1   5  -8 1127.59   54.79
  -1   5   8 1121.99   58.09
  -1  -5  -8 1078.49   59.29
   1   5  -8 1051.59   61.69
   1  -5   8 1048.80   51.29
   1  -5   8 1060.39   60.39
  -1  -5  -8 1182.28   53.29
  -1   5   8 1114.39   41.20
  -1   5   8 1113.79   38.20
  -1   5  -8 1104.69   57.09
   1   5   8 1120.79   39.30
  -1  -5   8 1140.59   53.29
  -1  -5   8 1111.69   48.90
   1   5   8 1033.30   52.99
  -1  -5   8 1133.69   54.09
   1  -5  -8 1110.79   41.60
   1   5   8  978.80   64.99
   1  -5  -8 1011.50   73.19
  -1  -5   8 1114.89   55.59
   1  -5  -8 1093.79   57.99
  -1   5  -8 1107.49   53.69
  -1  -5   8 1093.39   59.29
   1   5   8 1143.09   56.99
   2   5  -8  301.07   31.70
  -2   5   8  333.07   38.20
  -2  -5  -8  317.17   27.00
   2  -5   8  358.96   35.30
  -2   5   8  407.36   46.80
  -2  -5  -8  415.26   42.40
   2  -5   8  341.47   22.20
  -2   5   8  379.76   29.90
   2  -5   8  361.86   32.50
   2  -5   8  374.56   33.30
  -2  -5  -8  350.56   31.00
  -2  -5  -8  346.97   44.50
   2   5  -8  371.06   36.80
  -2  -5  -8  341.17   29.50
   2  -5   8  294.67   39.30
  -2   5  -8  339.67   38.20
  -2  -5   8  440.66   44.00
  -2   5  -8  383.46   43.60
  -2   5  -8  369.46   16.50
  -2  -5   8  328.47   39.30
  -2   5  -8  325.27   35.70
   2  -5  -8  339.57   39.20
   2   5   8  373.16   42.70
  -2  -5   8  378.46   29.20
  -2  -5   8  384.46   45.60
   2  -5  -8  347.07   34.00
   2  -5  -8  398.26   32.80
   3  -5   8  178.98   32.10
   3  -5   8  168.08   32.20
  -3  -5  -8  174.38   37.60
   3   5  -8  192.58   28.80
   3  -5   8  221.38   29.00
  -3   5   8  180.98   44.30
   3   5  -8  231.28   38.40
  -3   5   8  140.69   41.00
  -3  -5  -8  260.87   36.10
  -3   5   8  217.08   29.70
   3  -5  -8  245.08   34.40
   3  -5  -8  178.68   30.30
   3  -5  -8  235.18   39.30
   3   5   8  194.78   39.50
  -3   5  -8  218.58   45.90
  -3   5  -8  260.97   37.20
  -3  -5   8  219.68   37.80
  -3  -5   8  179.38   42.80
   0  -6  -8  673.73   44.50
   0   6   8  671.73   45.40
   0   6  -8  715.03   48.90
   0   6  -8  614.44   49.80
   0  -6   8  661.23   45.60
   0   6  -8  697.73   49.90
   0  -6  -8  666.93   43.60
   0  -6  -8  748.33   57.49
   0  -6   8  748.53   46.90
   0  -6   8  701.13   58.89
   0   6   8  662.03   46.50
   0  -6   8  700.53   43.40
   1  -6   8  399.26   37.60
   1  -6   8  386.16   38.50
  -1  -6  -8  371.16   48.10
  -1   6   8  361.26   44.50
   1  -6   8  357.36   51.59
  -1   6   8  321.27   33.20
  -1   6   8  295.27   31.10
   1   6  -8  362.86   40.20
   1  -6   8  290.97   34.00
  -1  -6  -8  366.66   51.49
   1   6  -8  416.86   40.30
  -1  -6  -8  340.17   37.10
  -1   6  -8  357.06   43.10
   1   6   8  420.06   48.00
   1  -6  -8  328.97   30.40
  -1  -6   8  330.47   38.50
  -1  -6   8  362.66   39.60
   1  -6  -8  362.96   38.80
  -1  -6   8  272.57   34.20
  -1  -6   8  245.48   41.50
  -1  -6   8  345.97   42.30
   1  -6  -8  444.56   48.90
  -1   6  -8  288.97   41.40
  -2  -6  -8  642.64   46.00
  -2   6   8  733.23   66.09
  -2   6   8  617.34   52.99
  -2   6   8  623.14   42.30
   2   6  -8  618.94   48.20
  -2  -6  -8  668.93   61.09
   2  -6   8  677.43   47.90
   2   6  -8  623.84   52.89
   2  -6   8  681.33   49.50
   2  -6   8  627.84   60.39
  -2  -6  -8  623.14   43.30
  -2   6  -8  701.93   49.30
   2  -6  -8  593.24   51.29
  -2   6  -8  711.53   28.90
  -2  -6   8  698.83   58.79
   2   6   8  654.83   63.09
   2  -6  -8  682.03   46.30
   2  -6  -8  720.73   58.59
  -2  -6   8  790.52   62.59
  -2   6  -8  784.32   62.79
  -3   6   8   43.30   49.20
   3  -6   8   32.60   34.20
   3   6  -8   43.80   30.60
   3   6  -8   71.89   27.20
  -3  -6  -8  124.69   47.00
   3  -6   8    6.40   29.00
   3  -6   8   57.39   31.40
   3   6   8    1.10   37.90
   3  -6  -8  122.99   32.30
   3  -6  -8   48.10   31.40
  -3  -6   8  104.49   43.10
   3  -6  -8   15.10   30.90
  -3  -6   8   40.00   38.00
  -3   6  -8   69.79   42.40
   0  -7   8  369.16   43.80
   0  -7   8  421.36   48.10
   0  -7  -8  366.16   45.60
   0   7  -8  390.36   49.70
   0   7  -8  359.06   47.40
   0  -7  -8  380.36   48.40
   0  -7  -8  567.14   66.59
   0  -7   8  327.87   51.19
  -1   7   8  105.79   36.30
   1  -7   8   77.39   39.80
  -1  -7  -8  154.78   33.40
   1   7  -8   81.79   30.20
   1   7  -8  114.49   33.20
   1  -7   8   88.79   28.20
   1   7  -8  105.29   30.50
  -1   7   8  138.29   25.60
  -1  -7  -8  120.29   32.40
   1  -7   8    5.30   30.20
  -1  -7   8  100.59   35.70
   1  -7  -8  145.89   29.90
  -1   7  -8   73.09   35.30
   1  -7  -8   79.39   37.80
   1   7   8  117.19   37.80
  -1  -7   8   92.79   34.10
  -1   7  -8   56.89   34.10
  -1  -7   8   54.89   27.50
   0   0   9    1.40    4.30
   0   0   9   -1.50    4.70
   0   0   9    3.70    5.20
   0   0  -9    3.50    4.40
   0   0  -9    0.30    3.40
   0   0  -9    2.70    5.50
   0   0  -9    5.00    4.50
   0   0   9    7.30    5.00
   0   0  -9    8.60    4.50
   0   0  -9   -2.50    3.70
   0   0   9   -6.00    5.10
   0   0   9    8.00    3.90
   0   0   9    8.20    6.70
   0   0   9    7.80    5.00
  -1   0   9  129.99    9.70
   1   0   9  125.09   14.10
  -1   0  -9  121.29   11.00
  -1   0   9  114.89    5.00
  -1   0   9  126.19   14.10
   1   0   9  116.99   14.40
  -1   0  -9  130.79   13.80
  -1   0  -9  143.89   14.80
  -1   0  -9  109.09   11.10
   1   0   9  132.39   11.40
  -1   0   9  120.09   10.30
  -1   0  -9  149.19   11.80
   1   0  -9  128.79    6.30
   1   0  -9  112.49   10.00
   1   0  -9  104.69   14.20
   1   0  -9  113.79   13.20
  -1   0   9  110.09   11.80
   1   0   9  116.69   10.80
  -1   0   9  113.49    8.70
   1   0  -9  143.99   14.40
   1   0  -9  133.59   11.60
   1   0  -9  143.69   14.10
   1   0  -9  126.59    9.80
   1   0   9  130.69   13.90
   1   0   9  130.39   12.30
  -1   0   9  117.79   14.90
   1   0   9  131.19   11.30
  -1   0   9  130.99   14.80
  -1   0  -9  137.09    9.00
   1   0   9  126.39    9.10
   1   0  -9  134.89   10.30
  -1   0   9  152.28   13.60
   2   0   9  326.77   17.40
  -2   0  -9  329.77   27.00
  -2   0  -9  318.17   22.50
  -2   0   9  304.07   27.00
   2   0   9  316.47   22.60
   2   0   9  350.56   20.80
  -2   0   9  279.17   23.20
   2   0   9  305.17   13.30
  -2   0  -9  278.07   20.30
   2   0  -9  318.87   16.50
   2   0  -9  270.07   24.30
   2   0  -9  314.27   11.30
  -2   0  -9  321.47   14.60
   2   0  -9  279.37   16.90
  -2   0   9  284.07   16.40
   2   0   9  288.77   26.70
  -2   0   9  314.37   21.20
   2   0  -9  334.67   28.10
   2   0   9  336.87   17.80
   2   0  -9  287.37   21.30
   2   0  -9  304.67   22.10
   2   0   9  298.37   24.70
   2   0  -9  294.57   10.00
   2   0  -9  305.57   22.00
   2   0  -9  308.07   22.30
   2   0  -9  317.67   18.90
   3   0  -9   18.90   14.30
  -3   0   9   -7.40   15.50
  -3   0  -9    8.20   11.00
   3   0   9   13.40   14.20
   3   0   9    4.90   12.70
   3   0   9   25.40   17.10
  -3   0   9   23.80   14.20
   3   0   9   -4.40   10.40
   3   0   9   23.10    9.90
   3   0   9   22.30    6.00
   3   0  -9  -16.00   17.90
   3   0   9    3.90    9.90
  -3   0  -9   25.90   15.60
   3   0  -9   18.30   13.10
   3   0  -9   20.10   16.70
  -3   0   9    1.20   14.10
   3   0  -9    4.70    6.70
  -3   0  -9   15.90   14.60
   3   0  -9   -4.80   12.90
   3   0  -9   -3.40    7.30
   3   0  -9    7.10    5.00
  -4   0   9   95.89   32.50
  -4   0   9   42.50   25.80
   4   0  -9   66.49   20.80
   4   0   9   65.39   14.20
   4   0  -9   95.09   12.40
  -4   0  -9   85.79   25.60
  -4   0   9   60.59   24.60
   4   0  -9   65.39    9.10
   4   0   9   54.29   11.40
   4   0   9   85.09   23.50
   4   0  -9   60.09   21.50
   4   0  -9   53.59   13.00
   4   0   9   79.19   23.90
  -4   0  -9   73.79   22.10
  -5   0  -9  216.18   44.40
  -5   0  -9  247.68   48.30
  -5   0   9  206.88   46.40
   5   0  -9  316.87   50.89
   5   0   9  257.97   44.60
   5   0   9  197.68   38.80
   0   1  -9  257.97   16.00
   0  -1   9  202.68   15.70
   0   1   9  261.07   15.70
   0  -1   9  229.78   13.40
   0  -1   9  257.57   17.20
   0   1  -9  240.28   12.90
   0  -1   9  237.78   15.70
   0   1  -9  247.58   15.40
   0   1  -9  250.37   14.70
   0   1  -9  224.08   14.60
   0   1  -9  219.08   18.60
   0  -1   9  242.08   14.20
   0   1   9  233.68   13.00
   0  -1  -9  249.58   14.50
   0  -1  -9  242.48   14.00
   0  -1   9  239.88   14.70
   0   1   9  251.67   17.40
   0  -1  -9  231.48   13.60
   0  -1  -9  258.77   15.00
   0  -1  -9  249.48   17.10
   0  -1  -9  245.78   15.00
   0  -1   9  241.48   15.60
   0   1  -9  249.08   15.20
   0  -1  -9  221.98   16.70
   0   1   9  239.08   14.40
   0  -1   9  259.67   15.10
   0   1   9  228.28   11.00
   1   1  -9  203.58   17.80
   1   1  -9  192.08   15.60
  -1   1   9  215.18   17.10
   1  -1   9  194.18   11.50
   1   1  -9  182.68   13.00
  -1   1   9  200.08   12.90
  -1   1   9  209.98   11.90
  -1  -1  -9  217.18   17.80
  -1   1   9  190.38    9.70
   1  -1   9  217.38   15.10
  -1  -1  -9  207.08   13.50
  -1   1   9  201.88   15.80
  -1   1   9  191.78    7.50
  -1  -1  -9  215.98   17.10
   1   1  -9  213.68   16.40
   1   1  -9  220.88   15.10
   1  -1   9  212.38   17.90
  -1   1   9  218.38   16.50
  -1  -1  -9  174.98   13.00
  -1  -1  -9  202.58    9.70
   1   1  -9  206.98   11.60
   1  -1   9  198.98   14.50
   1  -1   9  196.88   13.90
   1   1  -9  191.48   13.50
  -1  -1  -9  201.28   15.50
   1  -1   9  204.68   17.80
   1   1  -9  210.08   18.50
   1  -1   9  223.78   15.70
  -1  -1   9  166.78   15.70
  -1   1  -9  210.08   11.40
  -1  -1   9  167.98   17.90
  -1   1  -9  215.08   19.90
   1   1   9  196.38   17.70
   1   1   9  217.68   14.60
   1   1   9  202.78   14.30
   1  -1  -9  208.18   10.30
  -1   1  -9  191.08   13.20
  -1  -1   9  225.68   18.20
  -1  -1   9  212.88   16.20
  -1   1  -9  207.08   14.30
   1  -1  -9  205.98   15.50
   1  -1  -9  183.68   14.80
   1   1   9  217.08   18.10
  -1  -1   9  203.88   12.50
  -1   1  -9  189.88   16.10
  -1  -1   9  211.68   12.50
   1  -1  -9  178.98   16.70
  -1   1  -9  184.78   15.20
  -1  -1   9  188.08   10.80
  -1   1  -9  191.28   16.20
  -1  -1   9  204.08   13.60
   1   1   9  171.88   16.10
   1  -1  -9  228.78   19.50
   1  -1  -9  180.68   12.40
  -2  -1  -9  145.19   13.70
   2   1  -9  189.68   23.60
  -2  -1  -9  172.38   13.90
   2   1  -9  144.39   13.20
  -2   1   9  167.68   19.90
  -2   1   9  137.19   13.00
   2   1  -9  141.19   24.30
   2   1  -9  159.88   20.10
  -2   1   9  166.98   21.90
   2   1  -9  164.88   12.60
   2   1  -9  140.69   12.30
  -2  -1  -9  183.58   18.80
   2  -1   9  147.19   13.30
   2  -1   9  177.38   17.30
   2  -1   9  169.48   17.10
  -2   1   9  167.68   17.00
   2  -1   9  201.98   22.60
   2   1  -9  168.38   15.20
   2  -1   9  164.38   19.10
  -2  -1  -9  166.58   23.10
   2   1  -9  161.38   10.90
   2   1  -9  161.78   17.70
  -2   1   9  149.49   18.10
   2   1  -9  184.78   17.80
   2  -1   9  153.78   13.40
   2  -1   9  147.19   14.50
  -2  -1  -9  174.58   17.70
   2  -1   9  140.99   14.50
   2  -1   9  180.38   23.60
   2   1  -9  151.58   24.90
   2  -1  -9  153.98    9.80
   2  -1  -9  169.78   12.30
  -2   1  -9  158.48   18.50
   2   1   9  186.58   25.70
   2  -1  -9  163.88   18.80
  -2  -1   9  150.08   17.30
  -2  -1   9  170.68   20.20
  -2  -1   9  182.48   21.50
   2   1   9  198.98   25.80
   2   1   9  126.49   19.80
  -2   1  -9  156.18   11.80
   2  -1  -9  164.78   20.80
   2  -1  -9  154.68   24.60
   2   1   9  136.29   20.50
   2  -1  -9  166.08   16.50
  -2   1  -9  172.18   18.60
  -2  -1   9  181.68   14.70
  -2   1  -9  186.08   21.20
   2  -1  -9  177.98   14.00
   2   1   9  172.88   15.00
   2  -1  -9  169.88   14.90
   2  -1  -9  150.08   19.50
  -2   1  -9  179.68   17.10
  -2  -1   9  167.58   22.10
   2   1   9  170.38   17.50
   2   1   9  159.68   15.20
  -2   1  -9  132.49   20.20
   3   1  -9   13.00   12.80
   3   1  -9   14.30   16.60
   3  -1   9   21.90    9.50
   3  -1   9   21.90   14.10
   3  -1   9   42.60   14.40
  -3  -1  -9   49.10   12.40
  -3  -1  -9   24.40   14.40
   3   1  -9   23.30    9.10
   3  -1   9   12.50   20.80
  -3  -1  -9    4.80   14.30
   3   1  -9   49.00   16.20
   3  -1   9   49.90   11.00
  -3   1   9   41.70   18.20
   3   1  -9   20.40   16.60
   3   1  -9   21.80    7.40
  -3  -1  -9   28.60   11.70
   3  -1   9   40.20   11.80
   3  -1   9   53.69   12.50
   3  -1   9   63.69   17.80
   3   1  -9   32.80    8.00
  -3   1   9   39.80   19.20
  -3   1   9    8.50   17.00
   3  -1  -9   24.80    9.50
  -3   1  -9   71.39   17.30
   3  -1  -9   75.59   17.60
  -3   1  -9   37.80   12.30
  -3  -1   9   40.60   18.90
   3   1   9   30.10   11.50
   3  -1  -9   42.10   15.60
  -3   1  -9   33.60   18.90
   3   1   9   46.60   11.70
   3  -1  -9   43.40   11.40
   3   1   9   36.30   18.60
  -3  -1   9   11.00   16.80
   3  -1  -9   38.20    7.90
   3  -1  -9   41.50   12.40
   3  -1  -9   10.10   12.80
  -3  -1   9   43.00   21.00
   3  -1  -9   35.90    8.70
  -3   1  -9   49.30   17.70
   3  -1  -9   35.30    6.30
  -3  -1   9   28.50    6.30
   3   1   9   29.10   19.70
   3   1   9   37.80   10.40
   3   1   9   37.90   18.50
  -3  -1   9   40.30    6.60
   4   1  -9  137.59   16.90
  -4  -1  -9  127.79   22.90
   4  -1   9  129.89   29.80
  -4  -1  -9  149.69   29.30
  -4   1   9  132.59   26.20
  -4   1   9  163.58   35.30
   4   1  -9  139.79   20.30
   4   1  -9  126.99   22.80
   4  -1   9  146.09   11.00
   4   1  -9  100.99   23.70
   4  -1   9  150.68    9.50
   4   1  -9  183.28   30.20
   4  -1   9  135.39   21.70
   4  -1  -9  190.88   33.80
   4  -1  -9  119.99   15.10
   4  -1  -9  141.29   16.70
  -4   1  -9  193.18   31.90
   4  -1  -9  128.49   19.00
   4   1   9   93.09   29.60
   4   1   9  164.98   25.10
  -4  -1   9  184.78   33.90
  -4  -1   9  101.49   28.10
  -4   1  -9  139.89   30.40
  -4  -1   9  129.39   33.70
   4  -1  -9  163.28   28.00
   4   1   9  179.68   32.80
   5   1  -9  136.59   39.20
   5   1  -9  243.88   43.30
   5  -1   9  149.49   36.40
   5  -1   9  131.79   32.80
  -5   1   9  175.38   49.10
  -5  -1  -9  196.08   42.40
  -5   1  -9  189.78   40.20
   5   1   9   63.79   40.00
  -5  -1   9   90.09   41.70
   5   1   9  114.39   42.50
  -5   1  -9   46.20   40.30
  -5  -1   9  139.69   44.90
   5  -1  -9  194.28   36.50
   0   2  -9   -0.50    5.40
   0   2   9    6.10    9.50
   0  -2   9    0.20    8.90
   0   2  -9    9.90    6.80
   0   2   9    9.60    6.30
   0   2  -9    8.80    6.20
   0  -2  -9   18.90    7.50
   0   2  -9    5.40    8.00
   0   2  -9    9.90    6.20
   0   2   9    6.40    6.50
   0  -2  -9    9.10    6.10
   0  -2   9    4.30    6.00
   0  -2  -9   -1.10    5.90
   0  -2   9    8.60    6.80
   0  -2   9   12.30    7.80
   0  -2   9    9.60    7.40
   0   2  -9    5.20    5.30
   0  -2   9    6.80    6.10
   0   2  -9   -0.30    6.40
   0  -2  -9   -1.70    6.50
   0  -2  -9   13.80    5.70
   0   2   9    6.60    4.90
   0   2  -9    5.60    7.00
  -1  -2  -9  697.83   30.80
   1  -2   9  649.43   30.80
   1   2  -9  654.73   34.00
   1   2  -9  658.03   28.40
  -1  -2  -9  644.64   27.00
  -1   2   9  649.54   30.60
   1  -2   9  726.53   28.90
  -1   2   9  671.93   31.20
  -1   2   9  635.54   29.30
  -1   2   9  664.03   23.40
   1   2  -9  654.63   29.70
   1   2  -9  653.03   30.70
  -1   2   9  655.13   23.10
   1   2  -9  688.73   27.50
  -1  -2  -9  707.33   30.70
  -1  -2  -9  645.54   28.10
   1   2  -9  684.93   30.30
   1  -2   9  725.03   30.10
  -1   2   9  682.83   26.40
  -1  -2  -9  663.23   24.30
   1   2  -9  730.43   35.30
   1  -2   9  685.33   32.90
   1  -2   9  677.03   28.10
  -1   2   9  635.34   18.50
  -1  -2  -9  673.83   32.40
  -1  -2  -9  655.33   32.80
   1  -2   9  654.33   29.30
  -1   2   9  631.44   33.70
  -1  -2   9  684.23   31.60
  -1   2  -9  667.93   32.50
   1  -2  -9  668.83   30.80
  -1   2  -9  653.73   33.70
   1  -2  -9  668.13   18.70
  -1  -2   9  669.13   30.80
  -1   2  -9  632.54   29.00
  -1   2  -9  660.43   30.10
   1   2   9  646.84   32.40
  -1   2  -9  669.93   23.40
  -1   2  -9  662.33   29.00
   1   2   9  754.92   30.90
  -1  -2   9  667.83   31.50
  -1  -2   9  676.73   27.00
  -1  -2   9  632.34   26.20
   1   2   9  680.13   28.60
   1   2   9  675.93   32.80
  -1   2  -9  691.03   29.80
  -1  -2   9  644.54   33.10
   1  -2  -9  663.83   27.10
   1  -2  -9  684.63   34.20
  -1  -2   9  700.33   27.20
   2  -2   9  168.88   23.40
  -2   2   9  203.68   26.30
  -2  -2  -9  222.28   24.70
  -2  -2  -9  196.88   15.20
  -2  -2  -9  191.88   15.10
   2  -2   9  187.88   19.40
   2   2  -9  218.98   20.00
   2   2  -9  184.68   23.70
   2   2  -9  212.68   14.00
   2   2  -9  209.78   22.10
  -2  -2  -9  211.28   18.30
   2   2  -9  198.88   17.70
   2   2  -9  226.98   30.90
  -2   2   9  184.58   13.70
   2   2  -9  211.68   23.60
   2   2  -9  209.38   15.80
   2  -2   9  185.68   18.80
  -2   2   9  163.78   19.30
  -2   2   9  179.28   23.00
  -2  -2  -9  184.08   21.10
   2   2  -9  210.38   16.10
  -2   2   9  208.08   18.50
  -2   2   9  190.58   16.90
   2  -2   9  178.98   21.40
   2  -2   9  206.38   22.70
   2  -2   9  222.58   19.00
  -2  -2  -9  180.68   15.60
   2  -2  -9  219.78   15.80
  -2   2  -9  203.18   22.50
   2   2   9  193.38   21.90
  -2  -2   9  182.38   20.90
  -2  -2   9  211.58   25.50
   2   2   9  193.28   18.90
   2  -2  -9  181.18   24.20
  -2  -2   9  172.08   20.20
  -2   2  -9  199.78   22.10
  -2   2  -9  185.48   21.70
  -2   2  -9  192.28   20.30
   2  -2  -9  186.68   27.90
  -2  -2   9  186.38   10.10
  -2  -2   9  190.08   10.10
  -2  -2   9  201.78   10.00
  -2   2  -9  212.68   29.50
  -2  -2   9  169.88   22.80
  -2  -2   9  182.58   23.80
   2  -2  -9  208.88   15.50
   2   2   9  240.08   28.20
  -2   2  -9  195.38   15.20
   2  -2  -9  183.38   11.30
   2   2   9  177.98   20.50
   2   2   9  140.59   21.90
   2  -2  -9  191.58   17.30
   2  -2  -9  206.88   18.20
   3   2  -9  250.37   24.50
   3   2  -9  274.47   20.10
  -3   2   9  254.67   27.10
  -3   2   9  268.07   37.30
  -3  -2  -9  252.67   33.00
   3  -2   9  250.57   25.10
   3   2  -9  268.07   35.90
   3  -2   9  275.37   29.90
   3  -2   9  252.77   23.40
   3   2  -9  240.68   27.00
   3   2  -9  243.88   22.00
  -3   2   9  276.27   38.20
  -3  -2  -9  299.47   29.70
   3  -2   9  258.57   26.80
   3  -2   9  246.78   18.50
   3  -2   9  325.97   34.90
  -3  -2  -9  264.87   26.70
   3  -2   9  280.87   26.00
  -3  -2   9  293.47   20.50
  -3  -2   9  273.67   37.00
   3  -2  -9  242.58   22.30
   3   2   9  293.47   27.10
   3  -2  -9  273.17   19.20
  -3   2  -9  269.97   34.10
   3   2   9  254.67   24.80
   3  -2  -9  290.17   15.10
  -3  -2   9  285.57   34.80
   3  -2  -9  274.37   28.70
  -3   2  -9  258.37   25.20
  -3   2  -9  324.07   34.20
   3  -2  -9  273.67   19.00
   3   2   9  249.48   33.10
   3  -2  -9  200.88   32.40
  -3  -2   9  317.47   34.00
  -3  -2   9  330.57   37.20
   4  -2   9   68.79   21.10
  -4   2   9  110.69   33.60
  -4  -2  -9   73.19   25.70
  -4  -2  -9   40.00   28.50
   4  -2   9   64.29   24.50
   4  -2   9   82.19   17.30
   4   2  -9   38.40   26.90
   4   2  -9   63.09   18.30
   4   2  -9   34.90   14.60
  -4   2   9   51.09   22.10
  -4   2   9   20.90   27.40
  -4   2  -9  106.09   26.80
  -4  -2   9   62.69   28.20
   4   2   9   83.19   28.70
   4  -2  -9   76.69   14.60
   4   2   9   92.09   27.40
   4  -2  -9   21.10   23.40
  -4  -2   9   51.59   32.50
   4  -2  -9   75.09   16.30
  -4   2  -9   48.20   32.20
   4   2   9   37.30   23.80
   0  -3  -9   -5.30    8.60
   0  -3  -9    2.80    6.50
   0  -3  -9    5.70    7.20
   0   3  -9   -5.50    6.40
   0  -3   9    3.50    7.80
   0  -3  -9  -11.70    9.00
   0   3   9   10.30   10.10
   0   3  -9    2.20    9.20
   0   3  -9    7.50    6.10
   0   3  -9   -3.70    8.60
   0   3  -9   -5.10    9.30
   0   3   9   15.40    9.70
   0  -3   9   11.20    9.20
   0  -3   9    8.10    9.30
   0  -3   9    0.30   11.40
   0   3   9   -5.40    6.80
   0  -3  -9    6.80    9.70
   0  -3   9    0.10    8.40
   0  -3   9    6.10    7.20
   0   3  -9   -0.10    8.10
   0   3  -9   -4.90    8.60
   0   3   9   16.10    8.60
   0   3   9   14.40   14.60
  -1  -3  -9   -1.50    6.90
  -1  -3  -9   10.60    7.50
   1  -3   9   -2.60    9.20
  -1   3   9   -5.80   11.00
   1  -3   9   -3.30   10.70
   1  -3   9   -3.50    9.60
   1   3  -9  -10.50    9.20
  -1   3   9    0.30    5.70
  -1  -3  -9    7.30   10.20
   1   3  -9    1.30   14.10
  -1  -3  -9    5.00   10.90
   1   3  -9  -12.80    6.90
   1   3  -9   12.50    8.80
  -1   3   9   10.10   11.40
  -1   3   9    6.20    7.10
  -1  -3  -9    1.00    6.30
   1  -3   9    2.30    8.40
  -1   3   9    4.90    4.30
  -1  -3  -9    2.60    9.50
   1  -3   9   -5.90    8.00
  -1   3   9    6.90    8.70
   1   3  -9   10.10    9.40
  -1   3   9    2.50    4.60
   1   3  -9    0.80   11.00
   1   3   9   -5.10   10.70
  -1  -3   9    3.80    7.20
  -1   3  -9   -1.80    9.60
  -1   3  -9   -0.50    8.10
   1   3   9  -10.90    9.60
   1  -3  -9   -9.10   10.00
  -1   3  -9   -7.20    9.00
  -1   3  -9   13.10   10.40
   1  -3  -9    7.00   11.00
  -1  -3   9    7.80    9.60
   1   3   9    7.10   10.20
  -1  -3   9   11.80    7.80
   1   3   9    1.60   10.80
  -1  -3   9   -6.20   11.30
  -1  -3   9   -9.20    8.40
   1   3   9   -1.90   10.30
  -1   3  -9    2.40    6.30
  -1  -3   9    1.00    9.70
   1  -3  -9    1.60    9.10
  -1   3  -9    5.20    9.30
  -1   3  -9  -13.60   11.20
   2   3  -9  131.89   19.30
  -2  -3  -9  136.49   20.20
  -2  -3  -9  126.89   17.20
  -2   3   9   99.59   18.70
  -2   3   9  149.99   18.30
   2  -3   9  142.79   18.00
   2  -3   9   87.69   16.60
  -2   3   9  106.59   22.10
   2   3  -9  120.99   18.70
   2  -3   9   89.59   17.00
   2  -3   9   99.79   16.60
  -2   3   9   99.99   14.40
   2  -3   9  133.69   25.80
  -2  -3  -9   91.29   14.80
  -2  -3  -9   95.69   15.20
   2   3  -9  124.59   18.10
   2   3  -9  107.39   17.20
  -2  -3  -9  122.49   21.80
   2  -3   9   85.39   14.50
  -2   3   9   87.29   13.00
  -2  -3  -9  101.99    7.70
  -2  -3  -9  116.19   16.80
  -2  -3   9   85.89   14.30
  -2  -3   9  140.09   14.90
  -2  -3   9  111.89   19.30
  -2  -3   9   91.49   17.50
   2  -3  -9   95.69   14.90
  -2  -3   9   98.59   13.20
   2  -3  -9  111.59   16.60
  -2  -3   9  136.49   22.50
  -2   3  -9  118.19   17.30
   2   3   9  104.89   20.40
  -2   3  -9   82.59   18.10
   2   3   9  123.09   22.80
   2   3   9  150.48   24.80
   2  -3  -9   79.89   13.30
   2   3   9  148.99   21.70
  -2   3  -9  132.39   21.90
  -2   3  -9  107.09   19.40
  -2   3  -9  133.19   22.70
   3  -3   9   51.69   16.60
   3  -3   9   30.10   19.40
  -3  -3  -9   28.70    7.60
  -3   3   9   49.40   13.10
   3   3  -9   57.39   17.10
  -3   3   9   23.90   13.00
   3  -3   9   66.69   19.70
  -3  -3  -9    5.80   19.70
  -3  -3  -9   48.50   23.50
  -3   3   9   66.79   26.40
   3   3  -9   24.40   13.70
   3   3  -9   26.90    9.50
  -3  -3  -9   29.00   16.70
  -3   3   9   35.10   21.60
  -3  -3  -9   25.30    7.60
  -3   3   9   41.50   13.80
   3  -3   9   28.60   15.60
   3   3   9   12.20   18.10
   3  -3  -9   40.10   14.20
  -3  -3   9   37.60   22.30
  -3   3  -9   15.20   32.70
  -3  -3   9   34.30   16.20
   3  -3  -9   30.70   10.00
  -3  -3   9   24.60   25.10
   3  -3  -9   38.20   15.50
   3   3   9   36.10   17.80
   3  -3  -9   14.90   13.20
  -3   3  -9   68.39   22.60
   3  -3  -9    5.90   17.10
  -3   3  -9   44.40   19.90
   3  -3  -9   32.80   16.00
  -4   3   9  496.45   60.39
   4  -3   9  496.85   40.10
   4   3  -9  424.96   37.20
  -4  -3  -9  590.24   49.90
  -4   3   9  548.45   63.19
   4   3  -9  592.04   42.60
   4  -3   9  570.34   40.40
  -4  -3  -9  552.34   58.69
   4  -3   9  695.33   51.79
  -4  -3   9  586.34   61.99
  -4  -3   9  554.34   59.39
   4  -3  -9  621.24   35.80
   4  -3  -9  557.14   31.70
   4  -3  -9  500.75   57.79
   4  -3  -9  522.55   29.60
  -4   3  -9  499.75   53.39
   4   3   9  548.55   56.29
  -4   3  -9  556.44   64.39
   0   4   9   62.49   14.20
   0   4  -9   60.69   16.60
   0   4  -9   41.10   13.20
   0  -4   9   23.10   12.50
   0   4  -9   41.30   14.60
   0  -4   9   13.30   18.50
   0  -4  -9   43.00   11.40
   0  -4   9   53.49   14.10
   0   4  -9   61.79   16.30
   0  -4  -9   48.90   13.20
   0  -4  -9   37.20   18.30
   0   4   9   61.59   12.90
   0   4   9   40.80   12.30
   0   4   9   70.29   19.70
   0   4   9   59.79   13.00
   0  -4  -9   39.90   15.20
   0   4  -9   40.80   13.80
   0  -4   9   47.30   14.00
  -1  -4  -9  151.78   25.50
   1  -4   9  130.59   20.40
  -1   4   9  148.69   21.90
   1   4  -9  123.89   24.20
  -1   4   9  101.79   19.10
   1   4  -9  135.39   21.70
   1  -4   9  108.39   15.80
   1  -4   9  117.99   18.60
  -1  -4  -9  118.09   18.90
  -1   4   9  117.79   13.70
   1  -4   9  123.79   24.00
  -1  -4  -9  127.19   18.60
   1   4  -9  112.19   20.80
  -1   4   9  111.79   19.70
   1  -4   9   81.59   16.30
  -1  -4  -9  139.99   23.60
  -1   4   9  137.99   18.60
  -1   4   9  113.69    7.50
  -1   4   9  109.09   11.70
   1   4  -9   95.19   18.20
  -1  -4   9  123.89   19.90
  -1  -4   9  135.39   19.10
  -1   4  -9  123.49   20.60
  -1  -4   9  137.39   18.80
  -1   4  -9  112.19   19.20
   1   4   9  104.89   21.20
   1  -4  -9  140.09   23.30
   1  -4  -9   91.29   19.50
  -1   4  -9   96.59   17.20
  -1  -4   9  111.39   20.30
  -1   4  -9   97.79   18.90
   1  -4  -9  137.09   19.90
   1   4   9   86.69   18.70
  -1  -4   9  121.79   17.50
  -1  -4   9  129.99   22.20
  -1   4  -9  100.19   12.20
  -1   4  -9  107.39   17.60
   1   4   9  121.69   23.80
   2  -4   9   67.19   20.70
   2  -4   9   47.40   14.90
   2   4  -9   79.59   17.00
  -2  -4  -9   33.70   11.50
  -2  -4  -9   48.10    9.80
  -2  -4  -9   64.39   14.10
  -2  -4  -9   72.89   23.30
  -2  -4  -9   42.40   12.90
   2  -4   9   41.30   19.40
   2   4  -9   27.70   15.40
  -2   4   9   47.20   19.20
  -2  -4  -9   45.80   19.90
  -2   4   9   51.99   16.10
  -2   4   9   49.30   12.90
  -2  -4  -9   56.69   17.30
  -2   4   9  111.49   23.20
   2  -4  -9   55.69   15.50
   2  -4  -9   46.90   17.60
  -2   4  -9   19.70   17.20
   2   4   9   90.49   24.20
  -2   4  -9   57.79   14.80
   2   4   9   56.49   18.90
  -2   4  -9   21.50   17.60
  -2  -4   9   35.00   18.30
   2  -4  -9   59.69   13.10
  -2   4  -9   61.09   18.60
  -2  -4   9   42.00   16.70
  -2  -4   9   52.89   11.50
  -2  -4   9   47.60   18.80
  -2   4  -9   45.90   18.80
  -2  -4   9   74.59   22.50
  -2  -4   9   58.79   14.00
   3  -4   9  106.39   19.40
   3  -4   9  133.29   28.30
  -3  -4  -9   98.29   14.30
   3   4  -9  112.49   19.20
   3  -4   9   99.69   23.70
  -3  -4  -9  110.09   15.20
  -3   4   9   48.80   30.80
   3   4  -9  105.19   19.70
  -3   4   9   78.99   18.30
  -3  -4  -9   99.19   20.70
  -3   4   9   92.79   27.10
  -3  -4  -9   74.79   27.60
   3   4   9   90.09   29.10
  -3   4  -9   76.89   26.10
   3  -4  -9  110.69   20.30
   3  -4  -9   83.29   19.30
  -3   4  -9   75.49   27.80
  -3  -4   9   85.29   30.70
  -3  -4   9  128.09   30.90
   4   4  -9   54.09   23.30
   4   4  -9   48.90   22.10
  -4   4   9    8.90   41.00
   4  -4   9   87.19   35.80
  -4  -4  -9   31.80   31.50
   4  -4   9   52.49   25.70
  -4   4   9   12.40   40.30
  -4  -4  -9   51.09   40.00
  -4   4  -9   36.50   36.70
  -4   4  -9  123.49   38.10
  -4  -4   9  117.29   40.30
  -4  -4   9   87.89   37.10
   4  -4  -9   32.30   20.10
   4  -4  -9   -2.90   34.00
   4   4   9  115.59   40.10
   4  -4  -9   69.79   23.50
   0   5  -9  343.97   36.90
   0   5  -9  280.57   31.90
   0   5   9  328.57   29.80
   0   5   9  342.57   26.10
   0   5  -9  322.77   34.50
   0  -5  -9  373.46   41.00
   0  -5   9  404.06   30.60
   0  -5  -9  252.87   40.70
   0  -5   9  314.77   38.40
   0   5   9  344.27   30.60
   0  -5  -9  319.87   28.20
   0  -5   9  362.36   31.60
   0  -5   9  362.26   29.90
  -1   5   9  412.06   23.70
   1  -5   9  465.15   34.70
  -1  -5  -9  463.15   34.20
   1  -5   9  447.46   27.50
   1  -5   9  385.66   31.40
  -1   5   9  476.25   33.20
   1  -5   9  452.65   44.00
  -1  -5  -9  514.65   33.90
   1   5  -9  484.65   38.20
   1  -5   9  434.16   47.50
  -1   5   9  466.85   41.70
   1   5  -9  444.36   36.10
  -1  -5  -9  501.55   45.40
  -1  -5  -9  498.85   39.80
  -1   5   9  420.56   25.10
  -1  -5   9  509.35   41.00
   1   5   9  475.75   52.29
   1   5   9  512.75   43.20
  -1  -5   9  471.45   35.20
  -1  -5   9  419.16   41.40
  -1   5  -9  456.65   39.80
  -1   5  -9  520.45   27.40
   1  -5  -9  484.55   27.30
   1  -5  -9  465.25   33.70
   1   5   9  480.05   23.10
  -1   5  -9  453.45   35.90
   1  -5  -9  460.35   42.80
  -1  -5   9  514.95   33.60
  -1   5  -9  512.05   40.70
   1   5   9  397.36   37.70
  -1  -5   9  405.96   35.20
   2   5  -9   77.69   30.00
  -2  -5  -9  110.89   19.90
  -2   5   9  101.99   25.20
   2  -5   9   90.59   22.80
  -2  -5  -9  104.19   17.70
   2   5  -9  103.39   21.90
  -2   5   9   85.69   27.50
   2  -5   9   84.09   14.00
  -2  -5  -9   94.99   19.10
  -2   5   9   59.79   16.60
  -2  -5  -9   89.29   27.30
   2  -5   9  106.09   23.90
  -2  -5  -9  123.09   25.30
   2  -5   9   79.29   21.80
  -2  -5   9  101.59   18.80
  -2   5  -9   93.89   22.80
   2  -5  -9   84.09   22.10
  -2  -5   9   68.09   20.80
   2   5   9   90.89   28.60
  -2  -5   9   80.49   27.60
  -2   5  -9   92.09   27.40
  -2   5  -9  102.09   25.00
  -2   5  -9   80.09   13.00
  -2  -5   9  132.09   29.10
   2  -5  -9   57.39   22.50
   2  -5  -9  107.99   21.20
   3   5  -9  102.89   24.80
   3   5  -9    3.50   20.10
   3  -5   9   41.30   21.20
  -3   5   9   42.40   17.20
  -3  -5  -9   -6.00   22.60
  -3   5   9   27.50   31.90
  -3  -5  -9   55.39   29.90
   3  -5   9   56.49   26.30
   3  -5   9  105.09   28.80
  -3   5   9  -24.70   29.80
  -3   5  -9   72.19   29.60
   3   5   9   53.49   34.10
  -3  -5   9    8.90   32.00
  -3  -5   9   58.89   29.10
   3  -5  -9   27.30   21.10
   3  -5  -9   20.30   19.40
   3  -5  -9   77.99   25.00
  -3   5  -9   47.70   34.70
   0   6  -9    9.00   21.90
   0  -6   9   44.70   21.40
   0   6  -9   39.50   23.90
   0   6  -9   46.80   22.00
   0   6   9   40.90   19.20
   0  -6   9   35.30   27.60
   0  -6  -9   32.80   29.00
   0  -6  -9    7.50   19.90
   0  -6   9   70.09   22.10
   0  -6   9   42.80   19.30
   0   6   9   32.00   20.60
   0  -6  -9   19.90   19.20
   1   6  -9   20.40   20.30
  -1   6   9  -18.40   24.40
  -1  -6  -9   32.20   22.30
   1  -6   9   49.20   20.40
   1  -6   9   45.40   27.90
   1   6  -9   27.20   19.40
  -1   6   9   23.20   17.40
   1  -6   9   38.30   16.70
  -1  -6  -9   47.20   28.00
   1  -6   9   34.70   22.50
  -1   6  -9   65.29   23.80
  -1  -6   9   65.59   23.70
  -1  -6   9   50.49   22.40
  -1  -6   9   27.10   18.60
   1  -6  -9   34.20   27.20
  -1  -6   9   39.10   23.00
   1  -6  -9   40.20   21.50
   1   6   9   24.10   25.80
  -1   6  -9   31.90   21.90
  -1  -6   9  -14.00   30.90
   1  -6  -9   29.10   17.20
  -2  -6  -9   29.70   32.70
   2  -6   9  135.99   38.30
   2  -6   9   27.40   22.30
  -2   6   9  112.19   39.30
   2   6  -9   82.89   26.50
   2  -6   9   13.20   24.00
   2   6  -9   56.99   23.90
  -2  -6  -9   66.29   23.70
  -2   6   9   89.79   27.00
  -2  -6  -9   21.60   20.10
  -2   6  -9   51.89   26.10
   2  -6  -9   49.10   28.90
  -2  -6   9    7.00   27.50
   2  -6  -9   43.70   26.40
  -2  -6   9   32.50   30.10
  -2   6  -9  -20.00   28.90
  -2  -6   9   22.50   24.70
  -2   6  -9   54.49   11.40
   2   6   9    5.30   34.80
   3  -6   9   71.49   35.50
  -3  -6  -9   73.99   39.10
  -3   6   9   64.29   49.90
   3   6  -9   83.59   33.40
   3  -6   9   67.69   31.10
   3   6  -9   43.80   28.40
  -3   6  -9   89.99   46.00
  -3  -6   9  147.29   45.70
   3   6   9    0.70   40.20
   3  -6  -9   45.30   30.80
   0  -7  -9   -0.70   27.40
   0   7  -9   76.89   29.00
   0  -7   9  -18.10   26.30
   0  -7   9   60.99   25.30
   0  -7  -9   38.30   25.90
   0  -7   9   -5.00   40.90
   0  -7  -9   64.29   39.70
   0   7  -9   17.90   27.80
  -1   7   9   94.69   33.30
   1  -7   9   23.50   28.50
  -1   7   9  -16.50   21.80
   1   7  -9   46.80   27.10
   1   7  -9   12.70   31.40
  -1  -7  -9   36.80   34.80
  -1  -7  -9    5.70   28.70
   1  -7   9   -0.70   28.00
   1  -7   9    9.00   40.10
   1   7  -9    0.60   27.00
  -1  -7   9   19.60   33.30
  -1   7  -9   -8.10   29.20
  -1   7  -9   51.29   35.30
  -1  -7   9   30.10   32.90
   1   7   9   58.19   39.80
   1  -7  -9   53.49   39.70
   1  -7  -9   41.60   28.80
  -1  -7   9   21.90   27.30
   0   0 -10 9326.37  224.98
   0   0  10 9489.35  228.98
   0   0  10 9346.07  224.48
   0   0  10 9302.97  225.98
   0   0 -10 9088.99  229.78
   0   0  10 9292.57  225.38
   0   0  10 9095.59  224.68
   0   0 -10 9401.16  226.38
   0   0 -10 9396.66  226.78
   0   0 -10 9231.38  225.58
   0   0 -10 9443.16  227.08
   0   0  10 9590.54  224.58
   0   0 -10 9516.65  226.58
   0   0  10 8913.11  226.98
  -1   0  10 1855.31   49.70
   1   0  10 1748.53   52.39
  -1   0 -10 1872.41   57.29
  -1   0 -10 1911.21   58.19
   1   0 -10 1835.22   45.90
   1   0  10 1809.72   57.19
  -1   0  10 1758.52   44.30
  -1   0 -10 1764.02   52.59
  -1   0 -10 1808.72   49.70
   1   0  10 1881.31   50.89
   1   0  10 1722.23   55.39
  -1   0  10 1796.22   49.20
   1   0 -10 1868.31   57.69
  -1   0  10 1826.92   54.79
  -1   0  10 1825.42   59.39
   1   0 -10 1807.82   50.39
   1   0  10 1845.02   53.29
  -1   0 -10 1803.92   53.69
   1   0 -10 1786.82   52.39
  -1   0  10 1750.32   50.79
  -1   0  10 1747.53   54.29
   1   0  10 1885.31   56.99
   1   0 -10 1779.22   51.39
   1   0  10 1873.01   54.79
   1   0 -10 1838.62   54.99
  -1   0  10 1827.02   59.89
   1   0  10 1806.72   60.79
   1   0 -10 1826.62   58.79
  -1   0  10 1719.93   58.29
  -1   0 -10 1750.72   53.39
   1   0 -10 1869.81   57.09
   2   0  10 1235.98   44.60
  -2   0  10 1184.58   52.09
   2   0  10 1267.17   39.70
   2   0 -10 1224.08   45.00
   2   0  10 1189.68   52.39
   2   0 -10 1259.97   38.00
   2   0  10 1275.57   41.40
   2   0 -10 1228.78   40.30
  -2   0  10 1167.68   48.00
   2   0 -10 1250.87   50.19
   2   0  10 1249.38   42.30
   2   0  10 1196.38   47.10
   2   0  10 1251.57   52.09
  -2   0  10 1213.38   43.50
   2   0 -10 1258.77   49.40
   2   0 -10 1216.98   47.20
   2   0 -10 1266.67   39.70
   2   0  10 1246.48   35.30
  -2   0 -10 1238.98   47.40
   2   0 -10 1232.08   37.30
   2   0 -10 1276.67   40.50
   2   0 -10 1248.98   45.10
  -2   0 -10 1206.98   49.90
  -2   0 -10 1205.48   44.70
  -2   0  10 1231.68   38.90
   3   0  10  227.78   19.70
   3   0 -10  179.18   26.00
   3   0 -10  189.28   29.00
  -3   0  10  169.88   27.40
  -3   0 -10  184.38   27.70
   3   0  10  210.98   12.70
  -3   0  10  187.48   32.30
  -3   0 -10  185.78   25.30
   3   0  10  164.48   19.30
   3   0 -10  188.88   13.50
   3   0 -10  184.18   13.00
   3   0  10  210.88   28.60
   3   0 -10  170.38   12.50
   3   0 -10  162.88   10.70
  -3   0  10  224.38   26.80
   3   0 -10  140.99   25.00
   3   0 -10  211.98   20.40
  -3   0 -10  209.18   21.20
   3   0  10  188.08   19.80
   3   0  10  163.48   25.00
   3   0  10  193.08   27.10
   3   0 -10  165.58   25.30
   3   0 -10  170.18   13.50
   4   0 -10  109.89   14.80
   4   0 -10  107.19   16.80
  -4   0 -10   86.69   26.70
  -4   0  10   49.50   23.20
   4   0 -10   99.79   14.00
   4   0 -10  145.99   23.20
   4   0  10   88.29   29.20
  -4   0 -10  107.69   31.70
   4   0  10  130.29   18.20
  -4   0  10  146.69   32.70
   4   0  10  132.59   28.10
  -4   0  10   72.09   30.10
   5   0  10   41.40   35.80
  -5   0 -10  -75.09   39.00
   5   0 -10  103.29   33.30
  -5   0  10  -53.09   38.20
   5   0  10   21.70   33.00
  -5   0  10   92.19   44.80
   0   1  10  545.25   18.90
   0   1  10  528.85   22.10
   0  -1 -10  566.94   24.30
   0   1 -10  530.05   26.20
   0  -1 -10  579.24   24.50
   0   1 -10  580.24   21.50
   0   1  10  557.04   27.40
   0  -1 -10  551.14   23.30
   0   1 -10  532.35   23.70
   0  -1 -10  585.84   26.50
   0  -1  10  510.85   24.30
   0  -1  10  545.85   23.50
   0   1 -10  557.14   25.00
   0   1 -10  580.44   23.70
   0  -1  10  555.54   24.60
   0  -1 -10  552.74   22.60
   0  -1  10  501.25   30.00
   0   1 -10  533.65   23.60
   0  -1 -10  563.64   23.70
   0  -1 -10  576.94   23.90
   0  -1  10  581.74   23.50
   0   1  10  540.25   24.70
   0  -1  10  556.14   22.90
   0  -1  10  556.54   23.40
   0   1  10  545.65   22.00
   0   1 -10  528.85   23.80
   1   1 -10 4126.69  105.49
   1   1 -10 4304.07  110.49
   1   1 -10 4298.77  109.59
   1   1 -10 4168.38  114.39
  -1   1  10 4021.10  107.79
  -1   1  10 4179.98  100.19
   1  -1  10 4458.95  112.39
   1  -1  10 4314.47  109.79
   1  -1  10 3992.60  106.59
  -1  -1 -10 4345.06  115.89
   1   1 -10 4327.27  116.89
   1  -1  10 4300.07  114.69
  -1   1  10 4222.28  115.89
  -1  -1 -10 4141.79  110.59
  -1   1  10 4172.38  114.69
  -1  -1 -10 4290.87  112.39
   1  -1  10 4185.78  117.19
   1   1 -10 4398.06  115.89
   1  -1  10 4222.08  111.79
   1   1 -10 4415.16  113.19
  -1  -1 -10 4106.49  108.99
  -1   1  10 4090.99  102.99
  -1  -1 -10 4248.17  103.99
  -1  -1 -10 4235.48  114.39
   1  -1  10 4365.46  110.79
   1   1 -10 4127.59  108.89
  -1   1  10 4396.26  112.69
  -1  -1  10 4276.27  117.79
  -1  -1  10 4130.59  113.19
  -1  -1  10 4368.26  112.59
  -1  -1  10 4319.67  107.49
   1  -1 -10 4305.77  113.39
   1  -1 -10 4370.46  119.09
   1  -1 -10 4302.67  112.39
  -1   1 -10 4243.78  109.69
   1  -1 -10 4169.88  109.49
   1  -1 -10 4144.69  103.59
  -1   1 -10 4302.47  118.89
   1   1  10 4220.68  114.79
  -1   1 -10 4254.17  111.79
   1   1  10 4251.07  114.79
  -1  -1  10 4351.36  116.39
   1   1  10 4120.89  109.49
   1  -1 -10 4145.89  116.99
  -1   1 -10 4047.20  110.39
  -1  -1  10 4141.19  108.39
   1  -1 -10 4197.38  108.29
  -1   1 -10 4385.06  115.19
  -1  -1  10 4113.89  108.79
  -1   1 -10 4142.59  112.79
   1   1  10 4438.76  113.69
  -1  -1  10 4013.10  104.69
   1   1  10 4044.50  110.79
   2  -1  10  680.33   38.60
   2   1 -10  660.43   38.00
   2  -1  10  716.53   27.90
   2  -1  10  697.23   33.00
  -2  -1 -10  698.63   32.30
  -2   1  10  651.13   27.60
   2  -1  10  653.93   35.80
   2   1 -10  678.33   36.50
   2  -1  10  676.73   32.60
   2   1 -10  630.54   29.90
  -2  -1 -10  676.73   27.30
  -2  -1 -10  692.13   38.20
  -2   1  10  687.03   37.70
   2  -1  10  720.03   34.30
   2  -1  10  708.03   27.20
  -2   1  10  688.53   33.40
  -2  -1 -10  666.23   34.40
   2   1 -10  698.93   29.10
   2   1 -10  682.33   26.00
   2   1 -10  665.33   23.30
   2   1 -10  684.03   26.70
   2   1 -10  681.93   28.50
  -2   1  10  674.93   37.90
   2  -1  10  691.23   29.70
   2   1 -10  628.64   37.20
   2  -1  10  659.73   22.20
  -2  -1 -10  707.83   27.60
  -2  -1 -10  670.43   26.00
   2  -1  10  715.13   29.80
  -2   1  10  662.63   32.70
   2   1 -10  675.63   34.20
   2  -1 -10  655.43   21.90
  -2   1 -10  665.23   38.00
   2  -1 -10  646.04   36.30
   2   1  10  660.03   33.90
   2  -1 -10  625.04   33.20
  -2  -1  10  650.83   32.50
  -2  -1  10  676.43   39.00
  -2   1 -10  671.93   35.60
   2   1  10  681.23   29.30
  -2   1 -10  662.43   34.00
  -2  -1  10  685.63   28.60
   2  -1 -10  646.04   27.70
   2   1  10  681.83   28.10
  -2  -1  10  647.54   35.60
  -2  -1  10  666.73   35.90
   2  -1 -10  692.73   32.20
   2  -1 -10  675.03   40.70
   2  -1 -10  683.73   33.60
   2  -1 -10  676.33   25.90
  -2   1 -10  698.73   35.00
  -2   1 -10  677.33   26.40
   2   1  10  672.73   39.60
   2  -1 -10  671.03   25.40
   2   1  10  683.33   32.40
   3   1 -10 1552.34   47.30
   3   1 -10 1551.44   47.20
   3  -1  10 1554.04   53.09
   3   1 -10 1470.65   56.39
   3   1 -10 1466.05   55.79
   3   1 -10 1486.15   58.29
   3  -1  10 1541.85   66.59
   3  -1  10 1495.25   42.70
   3  -1  10 1546.65   52.29
   3   1 -10 1612.04   66.59
   3  -1  10 1591.94   50.99
   3  -1  10 1537.25   54.59
   3   1 -10 1562.44   47.90
   3  -1  10 1571.94   59.79
  -3  -1 -10 1553.34   62.39
  -3   1  10 1510.05   61.49
  -3  -1 -10 1577.04   55.79
  -3   1  10 1419.76   68.79
  -3  -1 -10 1545.65   54.19
   3  -1  10 1592.74   56.39
   3   1 -10 1510.85   46.30
   3   1 -10 1606.44   61.79
  -3  -1  10 1631.04   69.29
   3  -1 -10 1565.44   65.49
   3  -1 -10 1534.65   46.10
  -3  -1  10 1565.74   63.59
   3   1  10 1621.94   70.39
  -3  -1  10 1458.25   70.79
   3   1  10 1493.45   67.19
   3  -1 -10 1559.54   56.99
  -3   1 -10 1630.94   66.09
   3  -1 -10 1593.14   56.69
   3  -1 -10 1537.55   46.10
   3  -1 -10 1516.65   46.30
   3   1  10 1535.55   63.89
  -3   1 -10 1645.74   66.79
   3  -1 -10 1598.04   58.79
   3   1  10 1492.55   51.69
  -3  -1  10 1576.94   43.70
   3   1  10 1544.15   55.69
   3  -1 -10 1560.54   39.40
   3  -1 -10 1489.85   49.10
  -3   1 -10 1571.34   54.09
   3   1  10 1538.05   53.09
   4   1 -10   21.30   18.30
  -4   1  10    8.10   22.70
   4   1 -10   19.00   11.00
  -4  -1 -10   12.50   17.00
  -4  -1 -10  -13.20   23.00
   4  -1  10   -0.30   21.90
   4   1 -10   53.39   22.60
   4   1 -10  -15.60   20.70
  -4   1  10    5.70   27.20
   4   1 -10  -11.70   13.60
   4  -1  10    9.40   13.00
   4  -1  10   34.60   20.40
  -4  -1  10    8.10   25.40
  -4   1 -10    0.40   24.30
  -4  -1  10   41.00   29.80
  -4  -1  10   36.30   25.70
   4  -1 -10    9.30    9.20
   4  -1 -10    8.60   19.90
   4   1  10    3.60   23.90
   4   1  10   31.50   15.70
   4   1  10    0.40   22.00
  -4   1 -10   45.60   30.00
   4  -1 -10   -1.90   14.40
   4  -1 -10   19.10   10.40
   4  -1 -10   35.90   17.40
  -5   1  10  149.88   49.99
   5   1 -10  368.86   58.09
   5  -1  10  193.38   36.00
  -5  -1 -10  231.58   50.99
   5  -1  10  172.28   39.60
   5  -1 -10  228.98   41.20
  -5  -1  10  169.58   44.50
   5   1  10  162.08   42.50
  -5   1 -10  214.68   44.80
  -5  -1  10  221.68   46.20
  -5   1 -10  221.28   45.00
   0   2  10   -3.30    7.30
   0   2 -10    0.30    8.00
   0  -2  10    5.70    9.30
   0  -2  10    2.70    6.90
   0  -2  10   -9.20    6.70
   0  -2 -10    4.40   10.00
   0   2  10   -0.40    5.90
   0  -2 -10   -2.50    6.20
   0  -2 -10    8.10    5.70
   0   2 -10   -6.60    5.90
   0   2 -10    2.70    6.50
   0   2 -10    8.40    7.10
   0  -2 -10    6.10    7.20
   0   2  10    6.30    9.70
   0   2  10    1.20    5.90
   0  -2 -10    4.90    6.40
   0  -2  10    3.30    6.80
   0   2 -10   -4.60    6.80
   0  -2 -10   10.50    5.50
   0   2 -10    0.70    6.20
   0  -2  10   -0.70    5.80
   0   2 -10   -6.00    5.60
   0  -2  10    6.00    6.50
  -1   2  10  270.27   13.30
  -1   2  10  237.88   18.70
  -1  -2 -10  264.17   20.60
  -1   2  10  261.87   16.60
   1  -2  10  246.68   19.00
   1  -2  10  233.08   18.50
   1   2 -10  268.67   19.20
   1   2 -10  249.68   17.60
   1  -2  10  239.28   18.00
  -1   2  10  246.18   21.10
  -1  -2 -10  235.28   21.40
   1  -2  10  242.68   21.60
   1   2 -10  248.18   21.50
  -1   2  10  231.98   21.10
  -1  -2 -10  257.37   14.80
   1  -2  10  281.67   18.30
   1   2 -10  283.17   19.60
   1   2 -10  219.18   19.40
  -1  -2 -10  237.48   17.40
   1   2 -10  240.98   16.50
  -1   2  10  244.58   10.20
   1  -2  10  227.48   17.50
  -1   2  10  265.07   20.30
  -1  -2 -10  256.87   22.20
   1   2 -10  278.67   24.20
  -1  -2 -10  268.97   17.50
  -1  -2  10  258.77   16.80
  -1  -2  10  240.78   15.80
  -1  -2  10  264.17   21.60
   1   2  10  241.68   20.70
   1   2  10  241.88   19.30
   1  -2 -10  221.38   16.60
   1  -2 -10  276.07   17.90
  -1   2 -10  231.68   18.30
  -1  -2  10  253.77   17.20
   1  -2 -10  234.78   11.30
  -1   2 -10  257.47   17.80
  -1  -2  10  234.68   19.70
   1   2  10  228.98   21.30
  -1  -2  10  252.17   21.70
  -1   2 -10  233.88   19.10
   1   2  10  253.87   18.60
  -1   2 -10  257.77   21.80
  -1   2 -10  222.88   21.20
   1  -2 -10  273.57   23.70
  -1  -2  10  247.88   21.80
  -1   2 -10  232.58   18.80
   1  -2 -10  258.67   19.70
   2   2 -10  323.97   17.30
   2   2 -10  269.27   33.60
   2  -2  10  285.57   27.20
   2   2 -10  302.07   19.60
  -2  -2 -10  280.17   18.30
   2   2 -10  272.87   24.70
  -2   2  10  280.07   22.00
  -2   2  10  347.47   27.80
  -2  -2 -10  306.07   26.70
   2  -2  10  268.67   25.80
  -2   2  10  281.27   21.10
  -2  -2 -10  285.67   21.90
   2   2 -10  294.47   21.50
   2   2 -10  316.57   28.30
   2  -2  10  292.27   24.50
   2   2 -10  310.37   18.50
  -2   2  10  285.47   22.40
  -2  -2 -10  297.57   20.50
   2  -2  10  285.07   22.50
  -2  -2 -10  288.97   24.30
  -2  -2 -10  252.27   17.80
  -2   2  10  283.37   28.80
   2   2 -10  265.07   27.20
  -2   2  10  274.57   14.90
   2  -2  10  296.07   21.60
   2  -2  10  275.87   20.80
   2   2 -10  267.17   22.40
  -2  -2  10  329.67   31.40
  -2   2 -10  272.47   28.50
   2   2  10  315.07   29.70
   2   2  10  254.17   24.70
   2  -2 -10  277.67   27.70
   2   2  10  239.28   20.90
  -2   2 -10  305.77   27.20
  -2  -2  10  278.37   13.00
   2  -2 -10  316.77   31.20
  -2  -2  10  290.27   12.90
   2   2  10  263.17   26.20
   2   2  10  317.47   30.90
  -2  -2  10  289.77   26.10
   2  -2 -10  278.37   20.80
  -2   2 -10  280.17   19.00
  -2   2 -10  281.27   24.00
   2  -2 -10  285.27   20.70
  -2   2 -10  284.17   25.50
  -2   2 -10  283.27   26.00
  -2  -2  10  251.57   21.90
  -2  -2  10  267.47   12.90
   2  -2 -10  280.77   18.30
  -2  -2  10  284.27   25.30
  -2  -2  10  282.27   26.30
   2  -2 -10  317.77   17.20
   2  -2 -10  286.47   27.90
   3  -2  10   31.30   14.40
  -3  -2 -10   27.00   16.60
   3  -2  10   48.90   19.70
   3   2 -10   56.49   13.10
   3   2 -10   49.00   16.60
   3   2 -10   40.50   10.60
   3   2 -10   32.70   15.30
  -3   2  10   27.50   18.30
   3  -2  10   24.90   20.90
   3  -2  10   38.60   13.40
  -3   2  10   45.70   13.90
   3  -2  10   35.90    9.00
   3  -2  10   34.60   16.40
  -3  -2 -10   25.20   19.20
   3  -2  10   42.70   16.40
  -3  -2 -10   39.90   15.70
   3   2 -10   51.79   22.10
  -3   2  10   34.70   13.80
  -3   2  10   37.10   22.70
   3   2  10   20.40   18.20
   3  -2 -10   35.20   11.10
  -3  -2  10   60.19   20.70
  -3  -2  10   25.50   19.70
   3  -2 -10   50.69   16.50
  -3  -2  10   13.90   21.50
   3  -2 -10   29.50   10.50
  -3  -2  10   45.20   12.60
  -3   2 -10   20.50   18.50
   3  -2 -10   40.00    6.60
   3  -2 -10   24.70   16.50
   3   2  10   45.90   14.80
   3  -2 -10   12.80   10.60
   3   2  10   51.59   15.30
  -3   2 -10   30.40   19.10
  -3   2 -10   35.80   15.00
   4  -2  10  133.49   32.80
  -4  -2 -10  179.18   35.40
  -4   2  10  206.28   37.30
  -4  -2 -10  164.18   30.70
   4   2 -10  164.38   26.00
  -4   2  10  220.18   31.20
   4  -2  10  241.18   43.30
   4   2 -10  240.58   24.80
  -4   2  10  227.98   41.50
   4  -2 -10  210.68   22.50
   4  -2 -10  175.88   32.10
  -4   2 -10  280.57   47.50
   4   2  10  203.38   36.70
   4   2  10  178.18   32.90
  -4  -2  10  149.59   33.80
  -4   2 -10  157.18   33.50
  -4  -2  10  248.08   39.70
   4  -2 -10  198.18   29.10
   0  -3 -10   50.29   10.10
   0  -3  10   29.30    9.60
   0  -3  10   35.60   12.30
   0  -3 -10   37.60    9.10
   0   3 -10   30.40   10.50
   0  -3  10   38.90   12.90
   0   3 -10   36.40   11.30
   0   3 -10   64.09   14.00
   0   3  10   60.19   11.70
   0   3  10   44.20    9.70
   0   3  10   46.00   11.40
   0   3 -10   58.19   12.50
   0   3 -10   32.20   13.60
   0  -3  10   69.69   15.80
   0   3 -10   41.10   11.10
   0   3 -10   55.29   11.60
   0   3  10   58.29   15.10
   0   3  10   33.00   10.20
   0  -3  10   38.50   10.30
   0  -3 -10   38.40   13.00
   0   3  10   66.59   12.30
   0  -3  10   52.29   11.90
   0  -3 -10   44.10   11.60
   1   3 -10  439.56   31.70
  -1   3  10  433.46   31.30
   1  -3  10  374.26   30.60
  -1   3  10  433.56   21.60
  -1   3  10  431.36   25.30
   1   3 -10  405.26   25.70
  -1   3  10  397.46   30.60
   1  -3  10  405.76   26.50
   1   3 -10  389.16   28.20
  -1  -3 -10  383.16   23.30
  -1  -3 -10  394.86   28.00
   1  -3  10  413.86   24.70
  -1   3  10  442.76   24.20
   1  -3  10  430.96   27.90
  -1  -3 -10  408.46   30.10
  -1  -3 -10  436.86   27.70
   1  -3  10  416.26   25.40
  -1   3  10  411.56   15.00
   1  -3  10  451.25   27.80
   1   3 -10  421.86   28.20
  -1  -3 -10  395.86   23.20
  -1  -3 -10  430.96   22.10
   1   3 -10  404.66   25.40
   1   3 -10  422.86   25.90
   1   3  10  450.35   31.20
   1  -3 -10  408.46   24.20
  -1   3 -10  382.96   26.30
  -1  -3  10  380.66   26.50
  -1   3 -10  422.76   29.10
  -1  -3  10  409.16   24.10
   1   3  10  417.26   24.90
   1  -3 -10  403.46   15.60
  -1   3 -10  445.56   26.40
   1  -3 -10  385.56   27.90
   1   3  10  377.16   28.50
  -1   3 -10  403.26   20.50
  -1  -3  10  378.56   27.90
  -1   3 -10  358.66   25.80
  -1  -3  10  407.06   23.00
  -1  -3  10  435.66   25.60
   1  -3 -10  417.76   28.90
  -1  -3  10  401.86   29.40
  -1   3 -10  405.26   26.70
   1   3  10  466.25   28.90
  -1   3 -10  367.76   29.20
  -2  -3 -10  214.08   23.40
  -2  -3 -10  203.78   27.10
  -2  -3 -10  223.28    9.20
   2  -3  10  230.68   21.40
  -2   3  10  213.98   18.50
   2   3 -10  241.58   23.70
   2   3 -10  255.07   23.40
  -2   3  10  253.47   27.90
   2  -3  10  180.58   25.30
   2   3 -10  237.58   21.30
  -2  -3 -10  217.08   19.40
  -2   3  10  249.08   23.20
  -2  -3 -10  234.38    9.80
  -2   3  10  250.57   31.80
  -2  -3 -10  225.78   20.10
   2   3 -10  221.68   21.30
   2  -3  10  217.08   24.40
   2  -3  10  223.08   23.80
  -2  -3 -10  221.88   20.00
   2  -3  10  199.48   25.10
  -2  -3 -10  222.28   27.90
  -2   3 -10  192.88   25.70
   2   3  10  169.98   27.60
   2  -3 -10  206.18   15.90
  -2  -3  10  215.88   16.00
   2  -3 -10  248.08   17.30
  -2  -3  10  218.58   27.60
   2   3  10  171.78   22.80
  -2   3 -10  215.98   20.70
  -2  -3  10  252.17   18.40
   2   3  10  226.48   29.90
  -2  -3  10  228.48   17.50
   2  -3 -10  253.77   21.00
   2   3  10  223.58   27.30
  -2  -3  10  272.37   29.40
   2  -3 -10  198.28   21.60
  -2  -3  10  171.38   28.20
  -2   3 -10  242.38   27.90
  -2   3 -10  170.68   24.60
  -2   3 -10  236.98   27.00
  -3   3  10   30.00   23.10
  -3  -3 -10   23.60   11.90
  -3   3  10   43.20   13.40
   3   3 -10   31.90   23.70
   3  -3  10   35.70   15.30
   3  -3  10  -12.30   20.50
  -3   3  10   34.70   22.00
  -3   3  10   39.90   14.50
   3   3 -10   20.20   15.40
   3  -3  10   46.90   16.50
  -3  -3 -10   10.60   17.10
  -3  -3 -10   19.80   13.70
   3   3 -10   48.30   10.70
  -3  -3 -10   11.40   19.80
  -3   3  10   28.00   13.80
   3   3 -10   21.50   12.60
   3   3 -10    2.70   18.60
   3  -3  10   59.49   31.00
  -3  -3 -10   42.50   22.50
  -3   3 -10  -12.30   18.60
  -3  -3  10  -13.00   18.40
  -3  -3  10   59.59   17.60
   3   3  10   11.90   19.10
   3  -3 -10   36.90    9.70
  -3  -3  10   52.39   22.00
  -3   3 -10   35.00   20.90
   3  -3 -10   50.09   18.30
   3  -3 -10   25.30   12.60
  -3   3 -10   26.20   36.40
   3   3  10   17.60   19.20
   3  -3 -10   -4.60   20.10
   3  -3 -10   29.20   14.80
  -4  -3 -10   72.19   31.50
  -4  -3 -10   82.49   31.00
   4   3 -10   43.60   18.40
   4  -3  10   85.09   33.90
  -4   3  10  -21.80   30.90
   4   3 -10   44.50   22.50
   4  -3  10   23.00   19.00
   4  -3  10   36.90   23.30
  -4   3  10   31.10   34.60
   4  -3 -10   30.00   27.50
  -4   3 -10   97.49   29.80
   4  -3 -10   62.39   15.50
  -4  -3  10   34.30   31.60
   4  -3 -10   60.79   18.20
   4   3  10   40.80   27.70
  -4   3 -10   53.29   34.50
   0  -4  10 1157.58   46.40
   0  -4  10 1190.28   48.80
   0   4 -10 1219.78   47.50
   0   4  10 1266.17   59.29
   0  -4 -10 1145.09   49.50
   0  -4  10 1109.59   54.99
   0   4 -10 1162.78   51.29
   0   4 -10 1170.28   37.30
   0  -4 -10 1182.68   47.50
   0   4 -10 1208.18   55.39
   0  -4 -10 1187.58   55.79
   0  -4 -10 1129.79   42.90
   0   4 -10 1183.08   50.99
   0   4  10 1133.69   46.00
   0  -4 -10 1237.78   43.80
   0  -4  10 1099.09   47.20
   0   4  10 1170.78   46.10
   0   4  10 1146.19   43.40
   0   4  10 1105.59   46.90
   1   4 -10  511.55   32.90
  -1  -4 -10  497.85   37.70
  -1  -4 -10  519.75   31.10
   1   4 -10  558.34   37.10
   1  -4  10  515.35   32.50
  -1   4  10  529.75   37.80
   1  -4  10  526.65   26.60
  -1   4  10  498.95   17.40
  -1   4  10  511.85   30.90
  -1  -4 -10  505.55   29.40
  -1  -4 -10  539.05   34.60
   1   4 -10  445.66   32.00
  -1   4  10  461.35   29.40
  -1   4  10  514.45   21.50
   1  -4  10  522.25   38.90
  -1   4  10  520.15   19.50
  -1   4  10  510.35   20.50
   1   4 -10  624.44   42.60
  -1  -4 -10  542.75   31.40
  -1   4  10  545.65   33.20
   1  -4  10  514.85   31.80
   1  -4  10  480.65   31.00
  -1   4 -10  507.15   30.10
  -1   4 -10  548.75   34.60
  -1   4 -10  465.75   36.20
   1   4  10  536.15   37.00
  -1   4 -10  538.65   34.20
   1  -4 -10  517.65   30.70
   1   4  10  475.35   37.50
  -1   4 -10  531.65   37.90
  -1  -4  10  516.05   32.20
  -1  -4  10  531.55   31.30
  -1   4 -10  515.65   27.20
   1  -4 -10  575.54   36.20
   1  -4 -10  484.05   35.30
  -1   4 -10  558.14   36.60
   1   4  10  625.14   43.80
  -1   4 -10  512.75   17.00
  -1  -4  10  485.05   32.20
   1  -4 -10  520.45   22.90
  -1  -4  10  492.45   36.20
   2  -4  10  532.15   38.40
  -2   4  10  509.75   33.70
  -2  -4 -10  359.06   47.70
  -2  -4 -10  525.05   40.50
   2  -4  10  536.25   31.60
   2  -4  10  469.95   43.10
  -2  -4 -10  546.85   30.70
   2   4 -10  467.25   33.20
  -2  -4 -10  523.35   30.00
  -2   4  10  407.16   30.20
  -2  -4 -10  530.25   31.00
  -2   4  10  546.65   47.90
   2   4 -10  531.05   36.70
  -2   4  10  508.05   40.40
   2  -4 -10  489.05   28.80
  -2  -4  10  523.75   30.30
   2  -4 -10  506.55   27.30
  -2  -4  10  550.04   40.70
  -2   4 -10  478.95   39.30
  -2  -4  10  426.46   58.09
  -2  -4  10  516.25   32.20
  -2   4 -10  500.25   33.10
   2  -4 -10  408.46   55.89
   2   4  10  486.35   42.00
  -2   4 -10  501.85   39.10
  -2   4 -10  421.26   37.70
  -2  -4  10  485.35   27.20
   2  -4 -10  478.45   31.10
  -2  -4  10  526.65   42.00
  -3  -4 -10  -13.60   11.90
   3  -4  10   33.50   21.70
  -3  -4 -10   -4.10   24.00
  -3  -4 -10   29.10   13.50
  -3   4  10   19.90   26.30
   3  -4  10   -0.10   17.10
   3   4 -10   -1.60   14.00
  -3  -4 -10   18.60   19.90
  -3   4  10   -2.90   15.20
   3   4 -10    1.40   14.60
  -3  -4  10  -25.90   24.30
   3  -4 -10   31.10   17.20
   3  -4 -10    0.60   15.40
   3   4  10   40.10   26.30
   3  -4 -10    5.80   13.40
  -3   4 -10   22.70   26.30
  -3  -4  10   57.39   23.90
  -3   4 -10   -7.60   24.40
   4   4 -10   92.39   25.50
  -4   4  10   75.89   42.20
  -4   4  10  145.09   42.50
  -4  -4 -10  148.09   35.30
   4  -4  10  130.79   39.50
   4   4 -10   92.49   25.20
   4  -4  10  113.39   26.50
  -4  -4 -10  138.39   47.10
  -4  -4  10  113.39   43.40
  -4  -4  10   83.89   39.70
  -4   4 -10  153.48   38.40
   4  -4 -10  124.69   40.90
   4  -4 -10  117.39   22.70
   4   4  10   79.29   39.80
   4  -4 -10  129.19   25.70
  -4   4 -10   41.80   38.80
   0  -5  10  286.47   30.50
   0  -5 -10  250.17   27.30
   0   5 -10  224.28   34.60
   0   5 -10  264.27   51.49
   0  -5  10  222.08   28.10
   0   5 -10  293.97   34.50
   0  -5 -10  258.87   38.70
   0  -5 -10  285.77   28.40
   0   5  10  258.77   26.20
   0  -5  10  247.98   37.70
   0   5  10  218.18   25.40
   0   5  10  270.67   28.60
   1  -5  10 1387.36   56.39
  -1   5  10 1389.46   44.10
  -1   5  10 1285.57   45.60
  -1  -5 -10 1343.27   69.09
   1  -5  10 1381.36   59.79
  -1  -5 -10 1378.36   61.79
  -1   5  10 1433.16   58.49
  -1   5  10 1462.05   67.79
   1  -5  10 1441.56   61.19
  -1  -5 -10 1310.17   54.39
   1  -5  10 1298.47   67.59
   1  -5  10 1390.96   50.49
   1   5 -10 1339.17   63.09
   1  -5  10 1402.46   72.79
  -1  -5 -10 1310.57   61.79
   1   5  10 1335.07   75.39
  -1  -5  10 1424.76   61.49
   1  -5 -10 1367.56   67.59
  -1  -5  10 1343.37   55.79
   1   5  10 1396.16   65.89
   1  -5 -10 1444.56   48.80
  -1  -5  10 1393.56   60.29
  -1   5 -10 1454.75   44.70
   1  -5 -10 1364.56   57.59
  -1  -5  10 1328.77   68.39
   1   5  10 1266.67   59.89
  -1   5 -10 1457.05   62.59
  -1  -5  10 1533.55   64.39
  -1   5 -10 1423.06   53.79
  -1   5 -10 1485.85   66.89
  -2  -5 -10  456.25   30.60
  -2   5  10  420.36   50.79
   2  -5  10  449.56   36.30
  -2   5  10  524.15   44.60
   2   5 -10  463.15   38.80
   2   5 -10  387.56   37.80
  -2   5  10  424.26   33.80
  -2  -5 -10  438.36   32.90
   2  -5  10  329.87   37.60
  -2  -5 -10  401.46   47.80
  -2  -5 -10  516.45   46.90
   2  -5  10  407.66   44.10
  -2  -5 -10  453.85   33.90
   2  -5  10  439.16   26.90
  -2   5 -10  452.95   19.90
  -2  -5  10  452.35   31.80
   2   5  10  479.75   47.40
  -2  -5  10  343.97   48.50
  -2  -5  10  499.85   44.40
  -2   5 -10  456.25   47.30
   2  -5 -10  380.86   41.20
   2  -5 -10  397.46   36.40
  -2   5 -10  475.35   38.90
  -2   5 -10  405.46   39.40
  -3  -5 -10  992.60   54.39
   3   5 -10  956.80   58.29
   3  -5  10 1037.00   53.19
   3   5 -10  949.11   54.59
   3  -5  10  949.01   64.59
  -3   5  10 1033.80   76.49
  -3  -5 -10  891.71   71.79
   3  -5  10  952.70   64.79
  -3   5  10 1012.40   52.59
  -3   5  10  958.60   68.49
  -3   5 -10 1082.49   63.09
   3  -5 -10  971.30   55.99
  -3  -5  10 1050.39   77.79
  -3   5 -10  954.60   75.39
   3  -5 -10  864.01   57.49
   3  -5 -10  975.90   48.70
   3   5  10  993.70   73.69
  -3  -5  10  906.01   67.89
   0  -6 -10  729.23   72.89
   0  -6  10  786.52   61.59
   0  -6  10  670.83   46.80
   0   6 -10  619.34   49.40
   0  -6  10  693.53   45.00
   0   6 -10  682.93   51.99
   0   6 -10  715.03   52.29
   0  -6  10  836.12   50.39
   0  -6 -10  695.93   44.40
   0  -6 -10  688.93   46.40
   0   6  10  653.13   44.60
   0   6  10  807.82   49.50
   1   6 -10  207.38   35.70
   1   6 -10  115.09   27.10
  -1   6  10  151.68   31.80
   1  -6  10  146.99   38.00
   1  -6  10  200.38   33.70
  -1  -6 -10  124.99   46.30
  -1   6  10  105.79   22.00
   1  -6  10  172.98   28.90
  -1  -6 -10  173.98   28.20
  -1  -6 -10  119.89   33.60
   1  -6  10  214.28   31.80
  -1  -6  10  155.48   32.10
  -1  -6  10  165.08   31.50
   1  -6 -10  217.38   33.80
  -1   6 -10   96.19   29.40
   1  -6 -10  108.89   30.20
  -1  -6  10  134.29   26.70
  -1  -6  10  187.88   31.20
   1   6  10  150.18   32.00
  -1  -6  10  148.69   37.50
   1  -6 -10  135.79   21.60
  -1   6 -10  110.29   27.20
   2   6 -10  425.96   45.70
   2  -6  10  405.96   59.89
  -2   6  10  348.87   51.49
  -2  -6 -10  551.84   51.09
   2  -6  10  337.67   45.50
   2   6 -10  410.06   48.10
  -2  -6 -10  411.36   41.20
  -2  -6 -10  421.76   38.80
  -2   6  10  383.86   36.60
   2  -6  10  412.36   45.70
  -2  -6 -10  346.67   50.99
  -2   6  10  514.05   51.49
  -2   6 -10  436.66   47.30
  -2  -6  10  446.96   57.29
  -2   6 -10  435.26   59.19
  -2  -6  10  497.45   51.79
  -2  -6  10  366.36   37.70
   2  -6 -10  512.05   45.80
   2  -6 -10  455.95   54.09
   2   6  10  373.26   52.89
   0   7 -10   35.40   28.30
   0  -7  10   62.99   28.60
   0  -7 -10  113.19   40.70
   0  -7  10   17.70   31.10
   0  -7  10  -41.20   36.10
   0   7 -10   77.19   29.00
   0  -7 -10   50.09   29.10
   0  -7 -10   62.89   28.40
   1  -7  10  228.98   34.60
   1  -7  10  128.69   49.10
   1  -7  10  167.18   34.00
   1   7 -10  186.18   36.20
   1   7 -10  146.79   34.60
  -1   7  10  167.38   29.80
  -1  -7 -10  222.48   42.00
  -1  -7 -10  188.28   35.70
   1   7  10  219.88   42.70
  -1  -7  10  205.78   34.20
  -1   7 -10  214.68   41.10
  -1   7 -10  336.27   52.39
   1  -7 -10  197.68   40.70
  -1  -7  10  192.98   42.50
   1  -7 -10  176.08   34.00
  -1  -7  10  223.48   41.90
  -1  -7  10  256.47   41.10
   0   0  11    2.60    6.10
   0   0 -11    2.80    5.80
   0   0  11    7.40    5.50
   0   0 -11    6.60    5.20
   0   0 -11    6.20    4.50
   0   0  11    8.20    5.60
   0   0 -11    2.70    6.30
   0   0  11   11.00    7.00
   0   0 -11    9.30    5.20
   0   0 -11    0.00    4.80
   0   0  11    9.50    6.20
   0   0  11    2.50    4.50
   0   0 -11    6.20    4.30
   0   0  11    1.90    5.00
   0   0  11   13.20    9.00
  -1   0  11   82.59   13.00
   1   0  11   74.49   11.80
  -1   0  11   73.19   11.80
   1   0 -11   72.69   10.00
  -1   0  11   87.69   14.30
   1   0 -11   91.99   10.40
   1   0  11   77.09   10.70
  -1   0 -11   75.79   12.60
  -1   0 -11   85.59   11.10
   1   0 -11   67.59   12.40
   1   0 -11   84.19   12.00
   1   0 -11   81.49   13.80
   1   0  11   90.99   12.00
  -1   0  11   51.19   11.10
  -1   0  11   82.59    8.70
   1   0  11   94.99   14.00
   1   0  11   88.09   12.00
  -1   0  11   95.19   16.30
  -1   0  11   87.99   10.10
   1   0  11   77.69   13.30
  -1   0 -11   74.39   11.40
   1   0  11   81.99   10.40
   1   0 -11   78.59    9.90
   1   0 -11   84.39   12.70
   1   0  11  100.09   15.10
  -1   0 -11   78.79   11.60
  -1   0 -11   73.29    9.30
  -1   0 -11   96.29   14.50
  -1   0  11   83.29    5.20
   2   0  11   29.80   10.70
   2   0  11   16.40    8.40
   2   0  11   21.60   11.80
   2   0 -11   23.30    7.30
   2   0  11   19.10   10.00
  -2   0 -11   33.70   10.00
  -2   0 -11   24.50   11.60
   2   0  11   25.40    7.00
   2   0 -11   28.40    8.30
  -2   0 -11   33.00    7.80
  -2   0 -11   23.90   12.90
   2   0 -11   15.90    7.60
   2   0 -11   20.30    9.50
   2   0 -11   22.90    6.70
  -2   0  11   19.70   12.10
  -2   0  11   16.00    9.20
   2   0 -11   23.70   11.50
   2   0  11   13.60   13.40
   2   0  11   12.20    8.40
  -2   0  11   22.10    8.30
  -2   0  11    9.30    9.40
   2   0  11   25.10    5.90
   2   0 -11    6.30    9.70
   2   0 -11   45.80   13.40
   2   0 -11   21.20   12.50
  -3   0  11  270.37   28.20
   3   0 -11  276.67   12.30
  -3   0  11  287.97   37.00
   3   0 -11  300.87   29.40
  -3   0  11  260.37   13.60
  -3   0 -11  279.17   24.20
   3   0 -11  270.47   26.40
   3   0  11  293.97   24.20
   3   0  11  283.27   23.40
   3   0 -11  290.77   17.00
  -3   0 -11  268.77   31.50
   3   0 -11  273.27   22.50
  -3   0 -11  235.78   27.70
   3   0  11  289.87   34.00
   3   0  11  304.37   14.10
   3   0 -11  292.47   17.10
   3   0 -11  289.87   11.10
   3   0  11  257.37   31.10
   3   0 -11  303.57   29.00
   3   0  11  295.97   29.90
   3   0 -11  234.18   31.00
   3   0 -11  276.87   16.80
   3   0  11  296.77   24.60
  -3   0  11  284.37   33.50
  -4   0  11  120.09   35.00
   4   0  11   82.89   18.30
  -4   0 -11   98.99   27.30
   4   0 -11   94.79   15.00
  -4   0  11  112.19   31.10
   4   0 -11   94.39   24.50
  -4   0  11  108.99   28.00
   4   0  11   73.59   26.70
   4   0 -11   67.79   11.70
   4   0  11   93.49   26.50
   4   0 -11   88.39   25.20
  -4   0 -11  104.09   23.50
   4   0 -11   58.29   20.90
  -5   0 -11  119.29   39.50
  -5   0  11  166.28   43.10
  -5   0  11  138.69   50.09
   5   0 -11  145.09   35.70
   5   0  11  194.28   39.10
   0   1 -11  209.38   16.50
   0  -1 -11  199.58   17.60
   0   1 -11  204.48   17.50
   0   1  11  245.98   18.80
   0  -1  11  219.38   15.40
   0  -1 -11  209.38   15.20
   0  -1  11  209.58   14.90
   0   1  11  233.78   11.80
   0  -1 -11  203.98   15.60
   0  -1  11  216.88   18.70
   0   1 -11  224.18   16.30
   0  -1 -11  205.78   14.50
   0   1 -11  222.08   13.20
   0  -1  11  213.78   15.30
   0  -1 -11  192.08   14.80
   0  -1 -11  209.28   14.30
   0   1  11  188.48   14.40
   0   1  11  189.58   15.80
   0   1 -11  196.58   15.40
   0   1  11  212.18   13.70
   0   1 -11  198.98   15.10
   0  -1  11  220.78   15.30
   0  -1  11  207.38   15.70
   0  -1  11  227.68   17.30
   0   1 -11  219.38   15.20
   1  -1  11   14.40    6.40
   1  -1  11   18.60    6.60
   1   1 -11   28.00    8.90
  -1   1  11   36.20   10.80
   1  -1  11   30.30    8.80
   1   1 -11   27.80    8.00
  -1  -1 -11   19.70   12.00
  -1  -1 -11   26.00    7.20
  -1   1  11   34.00    6.00
   1  -1  11   25.70    8.30
   1   1 -11   32.30    6.40
  -1  -1 -11   29.90    5.40
  -1   1  11   23.20    3.40
  -1   1  11   23.10    8.50
  -1   1  11   29.60    7.30
  -1   1  11   37.10    7.80
   1   1 -11   25.70    7.30
   1   1 -11   20.60    6.90
  -1  -1 -11   24.30    9.90
  -1  -1 -11   25.60    7.60
   1  -1  11   17.70    9.40
  -1   1  11   30.10    5.70
   1  -1  11   37.40   11.40
   1   1 -11   38.40    9.20
   1   1 -11   16.20    8.30
   1   1 -11   37.70   10.80
  -1   1  11   26.30    8.30
  -1  -1  11   18.30    9.70
   1   1  11   34.50   11.00
  -1   1 -11   21.90    9.10
   1   1  11   26.60    7.60
   1  -1 -11   21.40   10.60
  -1  -1  11   16.60   10.00
  -1  -1  11    6.20    7.30
  -1   1 -11   27.10    8.00
  -1   1 -11   22.60    5.70
  -1  -1  11   19.70    6.20
  -1  -1  11   16.40    7.60
   1  -1 -11   17.00    7.10
  -1   1 -11   27.20    8.40
  -1  -1  11   21.90    5.60
   1   1  11   22.70    8.30
   1  -1 -11   26.60    9.60
   1  -1 -11   25.90    8.50
  -1  -1  11   22.50    7.10
  -1   1 -11   29.10    7.20
   1  -1 -11   19.00    6.80
   1   1  11   27.10    7.90
   1  -1 -11   35.40    9.00
  -1  -1  11   17.20    9.00
   1   1  11   27.90    9.50
   1  -1 -11   23.70    5.90
   1   1  11   22.00    8.70
  -1   1 -11   25.80   10.80
  -1   1 -11   32.40    9.50
  -2  -1 -11  433.56   20.90
   2   1 -11  410.36   25.20
  -2  -1 -11  451.35   31.90
   2  -1  11  483.45   31.70
  -2   1  11  448.46   23.40
   2   1 -11  421.26   28.40
   2  -1  11  473.35   24.10
  -2  -1 -11  450.15   27.30
   2  -1  11  418.16   21.40
  -2   1  11  416.56   20.40
   2   1 -11  447.66   23.10
  -2   1  11  468.15   33.30
   2   1 -11  444.56   17.60
   2  -1  11  434.56   31.30
   2  -1  11  404.26   32.00
  -2   1  11  451.25   27.30
   2   1 -11  437.46   21.60
   2   1 -11  439.06   23.90
  -2  -1 -11  445.86   21.50
  -2  -1 -11  440.26   27.00
   2  -1  11  425.86   23.50
   2   1 -11  432.46   21.30
   2  -1  11  466.05   22.40
  -2   1  11  435.76   27.70
   2  -1  11  420.66   26.30
   2  -1  11  427.36   17.70
   2   1 -11  395.96   33.50
  -2  -1 -11  432.86   21.40
   2   1 -11  450.95   30.80
   2   1 -11  458.05   35.00
   2   1 -11  427.66   28.50
   2  -1  11  397.76   26.80
  -2   1 -11  455.15   31.20
   2  -1 -11  428.86   29.70
  -2  -1  11  453.95   34.20
   2  -1 -11  426.66   29.70
   2  -1 -11  461.55   19.80
  -2   1 -11  440.26   21.80
   2  -1 -11  397.16   35.90
  -2   1 -11  437.16   27.10
   2   1  11  464.25   23.30
   2   1  11  493.15   33.60
   2  -1 -11  461.55   21.00
  -2  -1  11  425.26   31.10
  -2  -1  11  404.16   23.70
   2  -1 -11  412.86   32.50
  -2  -1  11  451.05   26.80
  -2  -1  11  439.26   30.20
   2  -1 -11  476.95   30.70
   2   1  11  393.16   28.40
   2   1  11  431.26   33.60
   2   1  11  483.65   27.10
  -2   1 -11  428.66   28.60
  -2   1 -11  427.66   32.40
   2  -1 -11  442.76   17.30
   2  -1 -11  447.46   21.10
  -2   1 -11  419.16   26.40
   2   1  11  437.36   24.10
   2  -1 -11  467.05   23.60
   3  -1  11  229.68   12.40
   3   1 -11  245.28   28.10
   3  -1  11  321.97   27.00
   3   1 -11  195.08   26.30
   3   1 -11  237.48   17.80
   3   1 -11  244.18   18.10
  -3  -1 -11  254.67   24.30
   3  -1  11  237.98   23.50
   3  -1  11  274.77   33.70
   3   1 -11  273.07   16.70
  -3   1  11  263.27   35.70
   3   1 -11  246.98   27.80
  -3  -1 -11  264.37   30.00
  -3   1  11  242.88   30.20
   3   1 -11  217.88   29.40
   3  -1  11  247.38   21.80
   3   1 -11  221.68   26.80
   3  -1  11  304.27   20.40
   3  -1  11  233.98   25.70
  -3  -1 -11  301.17   24.40
   3  -1  11  287.27   25.00
   3   1 -11  253.57   18.20
   3   1  11  261.97   38.30
   3  -1 -11  263.47   17.70
  -3   1 -11  270.67   30.00
   3   1  11  196.48   23.90
   3  -1 -11  235.58   24.20
  -3  -1  11  233.18   31.30
  -3   1 -11  282.57   30.20
   3  -1 -11  226.08   17.50
   3  -1 -11  241.28   16.90
   3   1  11  203.18   29.70
   3   1  11  257.07   22.90
   3   1  11  246.58   22.90
   3  -1 -11  233.18   18.90
  -3  -1  11  291.37   17.50
  -3  -1  11  296.97   34.90
   3  -1 -11  219.38   29.40
   3  -1 -11  243.48   17.10
   3  -1 -11  194.68   26.20
  -3  -1  11  233.68   34.30
   3  -1 -11  274.87   25.30
   3   1  11  287.17   35.10
  -3   1 -11  242.88   23.20
   4   1 -11  314.07   37.40
   4   1 -11  235.68   42.30
  -4   1  11  316.27   52.89
   4  -1  11  301.17   37.70
   4  -1  11  333.27   29.60
  -4   1  11  323.37   51.89
  -4  -1 -11  358.56   34.70
   4  -1  11  280.07   42.60
   4   1 -11  338.07   22.40
  -4  -1 -11  365.46   48.90
   4   1 -11  312.57   26.30
   4   1  11  327.97   47.30
   4  -1 -11  340.47   21.10
  -4   1 -11  336.77   43.60
  -4  -1  11  348.57   45.90
   4   1  11  283.37   44.50
   4   1  11  381.06   30.60
   4  -1 -11  306.57   28.30
  -4   1 -11  315.27   47.40
   4  -1 -11  361.06   35.60
   4  -1 -11  319.97   21.30
   4  -1 -11  381.16   42.40
  -4  -1  11  398.86   53.19
  -4  -1  11  343.67   47.60
   0  -2  11   13.20    7.20
   0   2 -11    1.10    6.50
   0  -2 -11    6.50    6.30
   0   2  11   -0.70    4.50
   0   2  11   19.80    8.40
   0  -2  11   14.80    9.10
   0  -2  11    5.80    6.50
   0  -2  11    8.20    7.40
   0   2 -11   14.80    8.40
   0   2  11    2.50    5.50
   0  -2 -11   11.40    9.20
   0  -2  11   -8.50    9.10
   0   2  11   15.90    9.80
   0  -2 -11    6.50    6.40
   0  -2  11   -1.00    5.80
   0  -2 -11   -1.50    6.00
   0   2 -11    0.10    7.20
   0  -2 -11    5.00    4.60
   0   2 -11   26.90   10.10
   0  -2  11   21.80    9.30
   0   2 -11    8.90    6.00
   0  -2 -11    5.90    7.10
   0  -2 -11    3.60    7.50
   0   2  11    4.10    6.00
   0   2 -11   -3.80    6.30
   0   2 -11    9.20    6.30
   0   2 -11    4.10    6.70
   1   2 -11  199.98   21.90
   1   2 -11  257.67   20.50
  -1   2  11  199.78   20.30
  -1   2  11  214.28   21.00
   1   2 -11  224.28   17.70
  -1  -2 -11  238.08   17.00
  -1   2  11  227.28   12.30
  -1  -2 -11  246.08   22.50
  -1  -2 -11  186.78   16.10
   1   2 -11  219.98   20.30
  -1   2  11  226.38   19.80
   1   2 -11  219.38   18.50
   1   2 -11  224.78   25.80
   1  -2  11  215.28   18.70
  -1  -2 -11  234.48   22.60
   1   2 -11  209.38   16.20
  -1  -2 -11  231.68   18.90
   1  -2  11  222.38   17.40
  -1  -2 -11  234.48   10.10
  -1  -2 -11  232.18   14.00
   1  -2  11  238.58   18.60
  -1   2  11  245.58   17.00
   1  -2  11  215.08   21.50
  -1   2  11  227.98   18.70
  -1   2  11  202.28   10.60
  -1   2 -11  234.78   17.90
  -1   2 -11  225.48   18.70
  -1   2 -11  226.38   14.10
  -1  -2  11  229.08   15.80
   1   2  11  222.98   17.70
  -1  -2  11  261.47   22.00
  -1  -2  11  212.78   20.90
   1   2  11  222.58   19.90
   1  -2 -11  187.58   16.50
   1  -2 -11  227.68   11.80
   1  -2 -11  252.47   23.10
   1   2  11  207.28   19.80
  -1  -2  11  229.18   20.40
   1  -2 -11  237.58   22.60
  -1  -2  11  247.18   16.40
  -1  -2  11  235.08   16.80
   1  -2 -11  229.08   17.30
   1  -2 -11  239.88   19.60
  -1  -2  11  214.38   20.00
  -1   2 -11  227.78   23.40
  -1   2 -11  212.18   17.70
   1   2  11  227.68   22.40
  -1   2 -11  219.68   20.70
   2   2 -11   99.69   19.00
  -2  -2 -11  107.89   14.90
  -2   2  11  136.89   24.20
   2   2 -11  128.69   19.60
   2   2 -11  108.49   13.10
   2   2 -11  102.49   14.60
   2   2 -11  156.78   14.30
   2  -2  11  126.99   20.40
  -2   2  11  128.39   19.80
   2  -2  11  129.79   21.40
  -2   2  11  129.59   22.10
   2  -2  11  107.99   17.50
   2  -2  11  110.29   17.80
  -2   2  11  124.09   18.70
  -2  -2 -11  120.19   14.80
  -2   2  11  139.79   18.50
   2   2 -11  140.19   24.40
   2   2 -11  125.49   17.60
   2   2 -11  132.59   19.40
   2   2 -11   75.19   18.00
  -2   2  11  123.09   10.30
   2  -2  11  106.59   17.60
  -2  -2 -11  149.39   21.60
   2  -2  11  162.18   18.70
  -2  -2 -11  128.69   17.50
  -2  -2 -11  130.39   18.40
  -2  -2 -11  138.69   21.50
   2  -2 -11  106.99   12.00
   2  -2 -11  138.09   21.90
  -2  -2  11  136.79   10.90
   2  -2 -11  122.39   20.80
  -2   2 -11  113.59   18.80
  -2   2 -11  154.18   18.70
   2   2  11  116.39   23.10
   2   2  11  153.28   23.30
  -2   2 -11  144.19   20.50
  -2  -2  11  143.49   10.70
  -2  -2  11  144.99   25.20
  -2  -2  11  148.79   23.30
   2   2  11  160.28   25.70
  -2   2 -11  154.18   21.50
  -2  -2  11  138.99   10.50
   2  -2 -11  116.89   16.50
   2  -2 -11  116.99   16.70
   2   2  11  101.79   19.40
  -2  -2  11  122.09   18.50
  -2  -2  11  154.08   20.60
  -2   2 -11  123.09   15.40
   2   2  11  130.39   16.60
  -2  -2  11  120.59   20.10
   2  -2 -11  144.89   15.00
  -2   2 -11  142.69   21.20
  -3   2  11 1079.89   48.80
   3  -2  11 1075.19   46.70
  -3   2  11 1024.40   59.49
   3   2 -11 1066.59   44.10
   3  -2  11 1181.28   57.89
   3  -2  11 1083.09   46.40
  -3  -2 -11 1104.89   57.89
   3   2 -11 1067.89   41.70
   3   2 -11 1096.99   50.69
   3   2 -11 1054.79   41.30
  -3   2  11 1102.69   61.29
   3   2 -11 1087.49   58.59
   3  -2  11 1101.09   49.20
   3  -2  11 1058.49   34.30
  -3  -2 -11 1140.59   51.59
   3   2 -11 1117.29   43.10
   3  -2  11 1117.19   48.80
  -3   2  11 1095.69   51.39
  -3  -2 -11 1138.69   50.29
   3  -2 -11 1089.69   46.10
  -3   2 -11 1184.38   60.59
  -3  -2  11 1056.49   41.70
  -3   2 -11 1116.59   49.40
   3   2  11 1125.99   48.80
   3  -2 -11 1062.19   44.70
   3  -2 -11 1056.69   55.49
   3  -2 -11 1108.59   40.50
  -3  -2  11 1106.99   56.49
   3   2  11 1037.30   45.10
   3  -2 -11 1073.39   40.90
   4  -2  11   48.30   26.80
  -4  -2 -11   76.69   28.30
   4   2 -11   48.50   14.90
  -4   2  11   66.79   31.40
  -4  -2 -11   46.40   29.10
  -4   2  11   32.90   34.10
   4  -2  11   64.09   21.80
  -4   2  11   82.29   24.90
   4   2 -11   17.20   19.90
   4  -2 -11   49.00   27.60
   4  -2 -11   37.40   17.60
   4  -2 -11   39.60    8.10
  -4   2 -11   73.49   31.50
   4   2  11    8.90   29.50
  -4  -2  11   51.39   30.10
   4  -2 -11   14.80   13.70
   4  -2 -11   45.20    8.70
   4   2  11   42.00   28.70
  -4  -2  11   63.29   32.20
  -4   2 -11   20.00   29.50
   0  -3 -11  -12.00    6.70
   0   3  11   -1.20    7.30
   0  -3  11    6.20    8.60
   0   3  11   11.60    8.80
   0   3 -11  -11.20   10.10
   0  -3  11  -10.50    8.80
   0   3 -11   -0.20    7.30
   0  -3 -11    7.70    8.50
   0   3  11   29.60   14.60
   0   3  11   -9.50   10.60
   0   3 -11  -18.70   10.10
   0   3 -11   -3.40    8.20
   0   3 -11  -14.20    9.50
   0  -3 -11   -3.90    7.90
   0   3  11    1.40    8.40
   0   3 -11   12.70    9.90
   0  -3  11   13.30    9.90
   0  -3  11  -12.90   11.70
   0   3  11   15.00    7.50
   0  -3  11  -18.80    9.10
   0  -3  11    8.20    7.70
   0  -3 -11    3.70   10.10
   0   3 -11  -11.70    7.40
   0   3 -11    7.80    7.90
   1  -3  11  138.49   19.50
  -1   3  11  125.69    9.40
   1   3 -11  101.99   15.30
  -1   3  11  125.29   21.00
  -1  -3 -11  136.09   15.80
   1   3 -11  131.09   18.00
  -1   3  11  114.59   19.30
   1   3 -11  126.19    5.70
  -1   3  11  131.79   17.20
   1  -3  11  106.89   17.10
   1  -3  11  126.29   17.90
  -1  -3 -11  129.79   15.20
   1   3 -11  163.68   22.70
  -1  -3 -11  152.98   23.10
   1  -3  11  101.49   16.10
   1   3 -11  115.59   19.30
   1  -3  11  148.19   23.50
  -1   3  11  148.49   18.90
  -1  -3 -11  140.99   19.30
  -1  -3 -11  111.69   14.60
   1  -3  11  134.19   18.00
   1   3 -11  120.99   16.70
  -1   3  11  116.89   14.90
  -1  -3 -11  124.59   20.70
   1   3 -11  139.89   29.20
   1  -3 -11  136.79   21.80
   1   3  11  139.69   19.10
  -1  -3  11  127.79   17.60
  -1  -3  11  149.99   22.00
   1  -3 -11  135.29   17.30
   1   3  11  126.49   21.00
  -1   3 -11  118.59   13.50
   1  -3 -11  107.89   17.20
   1   3  11  153.58   21.70
  -1   3 -11  103.49   18.60
   1   3  11  124.79   20.40
  -1   3 -11  118.49   21.80
  -1   3 -11  137.19   18.20
  -1  -3  11  110.79   16.50
  -1   3 -11  100.39   17.70
  -1  -3  11  150.18   17.80
  -1  -3  11  124.89   14.90
  -1  -3  11  136.19   16.10
   1  -3 -11  133.79    9.20
  -1   3 -11  164.98   23.60
   1   3  11  147.59   24.50
  -1  -3  11  151.78   25.10
  -1   3 -11  154.18   18.90
  -2   3  11  399.36   23.70
   2   3 -11  429.16   30.20
   2   3 -11  433.96   38.90
  -2   3  11  426.46   23.00
   2  -3  11  491.35   33.20
  -2  -3 -11  384.56   34.10
   2  -3  11  386.66   34.60
   2  -3  11  413.36   27.80
   2   3 -11  460.35   32.10
  -2  -3 -11  406.96   26.30
  -2   3  11  429.26   38.20
  -2  -3 -11  437.66   35.00
  -2  -3 -11  406.46   28.50
  -2   3  11  456.75   34.80
  -2  -3 -11  436.56   13.30
   2  -3  11  432.56   30.10
  -2  -3 -11  438.46   26.10
  -2  -3 -11  412.66   25.50
  -2   3  11  438.86   29.40
   2   3 -11  438.76   26.50
   2   3 -11  463.65   28.50
  -2  -3 -11  417.16   13.40
   2   3  11  435.06   37.00
   2  -3 -11  426.16   29.10
  -2   3 -11  409.26   33.80
  -2   3 -11  435.86   32.70
   2  -3 -11  454.35   20.60
  -2  -3  11  434.76   32.60
  -2  -3  11  419.86   21.50
  -2  -3  11  434.26   22.90
  -2   3 -11  385.66   32.50
   2   3  11  411.16   35.10
   2  -3 -11  445.06   26.10
  -2   3 -11  381.06   32.50
  -2  -3  11  424.76   22.60
  -2  -3  11  436.46   34.70
  -2   3 -11  445.86   28.10
   3  -3  11   78.29   24.70
  -3  -3 -11   52.89   10.80
  -3   3  11   60.59   15.80
   3   3 -11   72.09   17.50
   3  -3  11  112.19   24.60
   3   3 -11   20.50   22.50
   3   3 -11   69.19   19.40
  -3   3  11   89.19   26.50
  -3  -3 -11   36.50   23.80
   3  -3  11   79.39   18.70
  -3   3  11   73.09   25.10
  -3   3  11   72.89   31.60
   3   3 -11   78.29   16.10
  -3  -3 -11   63.69   18.90
  -3  -3 -11   61.59   11.80
   3  -3  11   74.39   22.20
   3   3 -11   58.49   10.70
   3  -3 -11   78.89   19.10
   3  -3 -11   50.59   15.70
   3  -3 -11   83.39   22.70
  -3  -3  11   63.89   23.90
   3  -3 -11   69.99   14.50
  -3  -3  11   58.39   22.10
  -3   3 -11  101.39   28.90
  -3   3 -11  101.29   26.20
   3  -3 -11   61.09   10.80
   3   3  11   21.40   20.30
   3   3  11   50.89   20.70
  -3   3 -11   63.49   23.40
   4   3 -11  503.85   36.90
   4   3 -11  410.06   41.40
  -4  -3 -11  436.76   58.59
  -4   3  11  388.36   61.99
   4  -3  11  485.05   54.89
  -4   3  11  403.86   62.99
   4  -3  11  431.56   40.00
  -4  -3 -11  510.75   53.29
  -4   3 -11  399.26   54.89
  -4  -3  11  519.75   62.89
   4   3  11  328.87   50.99
  -4  -3  11  589.44   66.99
   4   3  11  476.85   59.59
   4  -3 -11  454.45   53.19
   4  -3 -11  482.55   34.70
   4  -3 -11  429.56   29.10
  -4   3 -11  324.37   49.40
   0   4  11  162.78   20.40
   0  -4  11  175.08   21.80
   0  -4  11  169.48   28.60
   0   4 -11  149.19   23.50
   0   4 -11  170.78   22.90
   0   4  11  113.39   18.30
   0   4 -11  168.68   26.60
   0  -4 -11  215.68   18.70
   0  -4 -11  153.28   19.00
   0  -4 -11  192.08   18.80
   0   4  11  223.38   33.40
   0   4  11  144.79   20.60
   0   4  11  190.68   21.00
   0   4 -11  181.68   15.40
   0  -4 -11  136.49   22.00
   0   4 -11  127.19   20.50
   0  -4  11  157.08   22.30
   1   4 -11   51.49   12.70
   1  -4  11   52.59   16.10
   1  -4  11   37.80   18.30
  -1   4  11   41.30   12.50
  -1  -4 -11   46.50   13.00
  -1   4  11   48.90    8.50
  -1  -4 -11   58.59   18.40
   1  -4  11   52.89   12.50
   1  -4  11   37.20   15.40
   1  -4  11   49.20   15.40
  -1   4  11   14.50   16.00
  -1  -4 -11   38.90   15.10
  -1   4  11   32.70   15.60
   1   4 -11   37.30   15.60
  -1   4  11   55.39   15.20
   1   4 -11   48.70   22.30
   1   4 -11   39.40   18.00
  -1   4  11   44.70    7.50
  -1  -4 -11   52.89   12.70
  -1  -4 -11   31.50   14.60
   1   4  11   47.00   16.40
   1  -4 -11   41.90   16.30
   1  -4 -11   42.90    8.60
  -1   4 -11   42.50   11.60
   1   4  11   37.40   20.70
  -1   4 -11   44.30   14.20
  -1   4 -11   35.50   15.70
  -1   4 -11   56.99   14.80
  -1   4 -11   39.20   13.40
  -1  -4  11   49.20   18.50
  -1  -4  11   44.60   14.10
   1   4  11   10.00   18.40
   1  -4 -11   49.00   13.20
   1  -4 -11   26.60   16.20
  -2  -4 -11   57.19   20.60
   2   4 -11   70.59   18.00
  -2  -4 -11   54.09   13.80
  -2  -4 -11   62.89   16.00
   2  -4  11   72.59   17.20
   2  -4  11   41.70   21.30
  -2  -4 -11   45.10   14.00
   2   4 -11   90.09   19.30
  -2   4  11   58.29   20.50
  -2   4  11   45.40   20.30
   2  -4  11   42.20   19.30
  -2  -4 -11   79.99   22.50
  -2   4  11   22.30   14.80
  -2   4 -11   55.79   20.50
  -2  -4  11   43.40   19.00
  -2  -4  11   68.09   14.10
  -2  -4  11   64.99   22.20
  -2  -4  11   43.20   22.20
  -2  -4  11   65.09   16.20
   2  -4 -11   41.70   17.70
   2   4  11   78.39   23.00
  -2   4 -11   60.59   21.50
  -2  -4  11   56.09   13.20
  -2   4 -11   68.79   16.80
   2  -4 -11   48.60   14.30
   2   4  11   82.89   22.90
   3   4 -11  365.06   37.60
  -3  -4 -11  421.26   38.30
  -3  -4 -11  380.06   26.20
  -3  -4 -11  372.96   51.19
  -3   4  11  358.16   48.00
  -3   4  11  357.96   34.50
   3  -4  11  329.97   34.40
  -3  -4 -11  328.27   26.20
  -3   4  11  294.07   51.39
   3  -4  11  407.66   43.20
  -3  -4  11  426.76   50.39
  -3   4 -11  322.77   46.10
   3  -4 -11  311.57   34.20
  -3   4 -11  439.46   49.20
   3   4  11  273.07   46.80
   3  -4 -11  373.36   26.50
   3  -4 -11  368.76   33.20
  -3  -4  11  317.57   42.50
  -4  -4 -11  -39.70   39.60
   4  -4  11    9.40   25.60
   4  -4  11   22.60   31.80
  -4   4  11  -27.30   40.50
  -4   4  11   29.30   38.40
  -4  -4 -11   27.40   32.00
   4  -4  11   14.70   24.30
  -4  -4  11  -53.39   33.20
   4  -4 -11  -49.30   33.00
   4  -4 -11   -4.10   22.30
   4  -4 -11   -9.80   20.30
  -4   4 -11  -30.40   40.10
  -4  -4  11  -14.30   39.90
  -4   4 -11   -6.40   35.90
   4   4  11   50.79   37.30
   0  -5  11   56.69   17.20
   0  -5 -11   46.30   16.70
   0   5 -11   58.99   20.40
   0   5 -11   63.59   17.20
   0  -5  11   48.30   20.20
   0  -5  11   60.79   17.20
   0  -5 -11   53.09   26.50
   0   5 -11   84.49   22.30
   0   5 -11   26.90   17.70
   0   5  11   39.70   16.60
   0   5  11   48.90   15.50
   0   5  11   83.39   18.40
   0  -5  11   63.99   22.10
   0  -5 -11   15.40   15.50
  -1  -5 -11  264.17   32.80
   1  -5  11  201.98   27.40
  -1  -5 -11  206.98   27.00
  -1   5  11  266.47   28.60
  -1   5  11  188.98   27.80
   1   5 -11  192.08   32.20
   1   5 -11  246.38   30.00
   1  -5  11  192.08   25.30
   1  -5  11  204.48   32.30
  -1   5  11  165.18   19.30
  -1   5  11  251.87   19.30
  -1  -5 -11  308.57   40.10
   1  -5  11  181.78   34.40
  -1  -5 -11  227.08   32.40
  -1  -5 -11  255.77   30.90
  -1  -5  11  195.58   33.40
  -1   5 -11  195.68   25.80
   1   5  11  379.86   55.19
  -1   5 -11  296.97   39.40
  -1  -5  11  223.08   30.40
   1   5  11  183.78   30.80
  -1   5 -11  194.28   31.10
   1  -5 -11  243.88   27.30
  -1   5 -11  255.17   31.80
  -1   5 -11  280.47   18.30
   1   5  11  225.28   33.40
  -1  -5  11  247.78   28.70
   1  -5 -11  203.28   21.40
  -1   5 -11  171.68   32.60
  -1  -5  11  263.57   39.60
  -1  -5  11  280.47   30.30
   2  -5  11  267.87   36.30
  -2  -5 -11  216.18   29.30
  -2   5  11  271.17   29.90
   2   5 -11  294.57   35.50
  -2   5  11  252.47   40.40
  -2  -5 -11  245.88   35.50
  -2  -5 -11  226.28   35.10
  -2   5  11  303.57   39.30
   2  -5  11  250.57   24.50
   2   5 -11  216.58   33.80
  -2  -5 -11  233.18   28.40
   2  -5  11  175.38   29.20
   2  -5  11  267.27   31.80
   2  -5 -11  240.48   35.00
  -2   5 -11  251.97   41.10
  -2  -5  11  255.77   38.10
   2   5  11  253.17   38.80
  -2   5 -11  242.58   14.50
  -2   5 -11  271.37   41.10
   2  -5 -11  259.97   32.40
  -2   5 -11  266.17   34.20
  -2  -5  11  250.17   26.80
  -2  -5  11  216.48   36.70
  -3   5  11  157.68   35.80
  -3   5  11  163.18   44.60
  -3  -5 -11  165.78   40.30
   3  -5  11  189.88   36.30
   3   5 -11  165.88   31.50
  -3   5  11  164.48   24.70
  -3  -5 -11  282.47   39.70
   3  -5  11  148.79   33.20
   3  -5  11  177.68   29.30
   3   5 -11  131.19   26.50
  -3  -5  11  185.38   39.30
   3  -5 -11  247.58   38.90
   3   5  11  188.18   36.50
   3  -5 -11  146.99   29.00
  -3   5 -11  186.08   39.70
  -3  -5  11  195.58   43.50
  -3   5 -11  217.68   35.10
   0  -6 -11   11.70   39.10
   0  -6 -11   58.69   24.30
   0  -6  11   97.39   23.50
   0  -6  11   90.79   22.20
   0   6 -11   67.59   24.30
   0  -6  11   59.19   29.60
   0   6 -11   51.49   25.20
   0   6  11   64.19   18.50
   0  -6 -11   69.59   21.70
   0  -6  11   51.59   21.20
   0   6  11   58.59   21.90
  -1  -6 -11  136.99   36.40
   1   6 -11  118.69   27.80
   1   6 -11  141.19   28.30
  -1  -6 -11  145.09   26.90
  -1   6  11  117.59   30.50
   1  -6  11  120.39   22.90
   1  -6  11   60.89   28.90
   1  -6  11  160.38   29.90
  -1  -6 -11  154.58   30.90
  -1  -6 -11   80.29   25.10
   1  -6  11  125.39   27.10
  -1  -6  11  109.79   27.90
  -1  -6  11  109.89   33.90
  -1   6 -11   90.99   28.60
  -1  -6  11   68.99   24.90
  -1  -6  11  152.28   29.50
   1  -6 -11  126.59   22.90
   1  -6 -11  139.89   27.60
  -1   6 -11  111.39   28.10
   1  -6 -11  120.29   32.70
  -1   6 -11  120.89   24.80
   1   6  11  118.19   30.10
   2  -6  11  111.69   32.10
   2   6 -11  141.59   29.10
   2  -6  11  112.89   37.30
  -2   6  11  111.09   23.10
  -2  -6 -11  147.39   27.60
  -2   6  11  108.49   29.00
  -2  -6 -11  153.18   25.50
  -2   6  11  122.69   38.50
  -2  -6 -11   68.99   23.90
  -2  -6 -11  150.58   38.40
   2   6 -11  157.78   32.80
   2  -6  11  145.29   31.00
  -2  -6  11  143.39   39.50
   2  -6 -11  122.49   29.60
  -2  -6  11  126.29   36.30
  -2  -6  11  124.49   26.10
  -2   6 -11  147.49   30.20
   2  -6 -11  121.19   36.30
  -2   6 -11   87.09   33.90
   2   6  11   93.09   40.10
   0  -7 -11   45.60   29.70
   0  -7 -11   17.80   39.60
   0  -7 -11   16.90   35.70
   0  -7  11  -74.09   38.60
   0   7 -11   -7.00   28.00
   0  -7  11  -18.70   29.90
   0   7 -11  -11.00   30.50
   0   7  11  -17.00   21.70
   0  -7  11   43.90   28.00
   0   7 -11   35.30   27.70
   1  -7  11   66.19   34.60
  -1  -7 -11   70.69   31.70
  -1  -7 -11    8.70   24.90
  -1   7  11   -6.70   22.50
  -1  -7 -11   -5.60   26.60
   1  -7  11  -37.90   37.20
  -1   7  11    6.50   33.50
   1  -7  11   29.10   30.30
   1   7 -11   31.00   28.60
   1   7 -11  -32.10   29.00
  -1  -7  11    7.40   34.90
   1  -7 -11   56.09   31.40
  -1   7 -11   54.39   33.80
  -1  -7  11    0.60   31.30
  -1  -7  11  -23.40   24.20
   1   7  11    4.70   36.60
   1  -7 -11  -13.90   34.80
  -1   7 -11   57.99   36.20
   0   0  12 4987.40  128.89
   0   0 -12 4979.60  127.79
   0   0  12 4603.14  128.39
   0   0 -12 4765.92  127.39
   0   0  12 5176.98  130.99
   0   0 -12 4970.10  128.19
   0   0  12 4892.51  126.59
   0   0 -12 5102.69  126.39
   0   0 -12 4781.72  130.09
   0   0  12 5046.00  125.99
   0   0  12 4819.02  126.29
   0   0  12 5009.70  125.49
   0   0 -12 4768.02  125.59
   0   0 -12 4864.61  127.69
  -1   0 -12  527.35   23.90
   1   0 -12  511.15   27.90
  -1   0  12  503.55   22.00
   1   0  12  535.55   25.30
  -1   0  12  531.75   29.90
  -1   0  12  514.85   16.30
   1   0 -12  526.85   26.00
   1   0  12  534.95   27.30
   1   0 -12  525.75   23.80
   1   0 -12  528.05   23.20
  -1   0  12  540.35   22.20
   1   0  12  555.34   22.70
   1   0 -12  497.35   26.70
  -1   0  12  551.74   19.90
  -1   0 -12  531.95   23.80
  -1   0  12  507.85   24.90
   1   0 -12  527.05   26.80
  -1   0 -12  527.55   27.70
  -1   0  12  519.95   29.20
   1   0 -12  538.55   21.90
  -1   0 -12  492.75   23.80
   1   0  12  547.25   28.30
  -1   0  12  567.14   26.90
   1   0  12  564.84   26.10
   1   0  12  531.35   23.70
   1   0  12  538.55   29.80
   1   0  12  520.55   25.50
  -1   0  12  514.35   21.70
  -1   0  12  509.25   28.40
  -1   0 -12  527.95   24.60
   2   0  12 2154.28   63.99
  -2   0 -12 1950.20   66.19
   2   0 -12 2012.90   59.09
   2   0  12 2029.70   54.79
  -2   0  12 2007.10   68.19
   2   0  12 1984.00   65.39
   2   0 -12 2015.40   58.19
   2   0 -12 1969.30   70.29
  -2   0 -12 1973.00   64.89
  -2   0 -12 1958.60   70.79
   2   0 -12 2144.69   69.59
  -2   0  12 2076.39   73.19
   2   0 -12 2034.70   61.29
   2   0  12 2007.80   59.59
   2   0  12 2039.90   72.19
  -2   0  12 1963.30   59.89
  -2   0  12 2027.10   75.49
   2   0 -12 1987.20   57.89
  -2   0 -12 1982.50   58.99
   2   0 -12 1839.12   73.69
  -2   0  12 1938.11   61.49
   2   0  12 1966.70   73.69
   2   0  12 2055.89   61.69
   2   0 -12 1970.90   70.09
  -2   0 -12 1977.40   63.59
   2   0 -12 2016.20   64.49
   2   0  12 1972.50   67.49
  -3   0 -12  583.34   36.70
   3   0 -12  562.64   32.00
   3   0 -12  527.25   38.70
   3   0 -12  526.45   36.80
   3   0 -12  558.54   25.10
   3   0  12  551.04   39.50
  -3   0 -12  581.44   32.20
  -3   0 -12  561.04   39.20
   3   0  12  524.65   30.60
   3   0  12  547.05   31.90
   3   0  12  535.85   20.20
   3   0 -12  534.75   38.00
   3   0  12  559.64   38.50
   3   0 -12  510.25   29.30
   3   0  12  625.64   43.50
  -3   0  12  552.44   35.80
   3   0  12  553.44   26.60
  -3   0  12  542.55   46.30
  -3   0  12  514.05   41.10
   3   0 -12  590.24   24.90
   3   0 -12  520.35   24.50
   3   0  12  506.35   30.20
   4   0 -12 1176.18   62.29
   4   0  12 1167.58   42.00
  -4   0 -12 1082.79   65.69
  -4   0 -12 1125.99   58.39
   4   0 -12 1107.79   60.59
   4   0  12 1094.09   60.49
   4   0 -12 1062.99   52.79
  -4   0  12  939.51   57.49
   4   0 -12 1070.89   38.20
   4   0  12 1105.19   67.29
   4   0  12 1085.69   48.90
   4   0 -12 1032.10   38.40
  -4   0  12 1090.79   66.09
  -4   0  12 1107.19   72.39
   0   1  12   44.50    8.20
   0  -1  12   56.99   10.10
   0  -1 -12   40.40    9.80
   0  -1  12   49.70    9.20
   0   1  12   31.80    7.40
   0  -1 -12   34.50    8.20
   0  -1  12   38.40    8.90
   0   1 -12   45.80    9.10
   0   1 -12   32.40    8.40
   0   1  12   41.70    8.90
   0  -1  12   44.10    9.00
   0  -1  12   46.70   12.90
   0   1 -12   58.29   10.60
   0  -1 -12   41.10    9.20
   0  -1 -12   43.50    8.40
   0   1  12   58.39    8.30
   0   1  12   48.10   11.00
   0  -1  12   45.60    9.60
   0  -1  12   66.29   11.90
   0   1 -12   51.49   11.10
   0   1 -12   54.69   10.50
   0  -1 -12   35.60    7.60
   0  -1 -12   49.00    8.80
   0   1  12   57.59    9.50
   0   1 -12   50.49   10.40
   0  -1  12   38.50   10.40
  -1   1  12 1058.59   30.10
  -1   1  12 1082.99   34.90
   1  -1  12 1097.49   42.80
   1   1 -12 1008.10   36.70
  -1  -1 -12 1017.40   36.90
  -1   1  12 1023.20   39.80
   1   1 -12 1029.80   36.70
   1  -1  12 1077.69   39.20
   1  -1  12 1042.10   31.60
  -1  -1 -12 1021.50   42.30
   1   1 -12 1116.99   43.10
   1  -1  12 1034.60   35.80
   1  -1  12 1011.80   43.20
  -1   1  12 1021.90   41.70
  -1  -1 -12 1093.09   42.40
  -1   1  12 1040.20   28.50
   1   1 -12 1088.39   34.90
  -1  -1 -12 1001.20   38.10
   1   1 -12 1126.89   42.20
   1  -1  12 1101.89   38.70
   1  -1  12 1071.89   39.70
   1  -1  12 1066.59   37.20
  -1   1  12 1016.10   31.80
   1   1 -12 1043.80   41.50
   1   1 -12 1076.79   40.70
   1   1 -12 1044.10   38.00
  -1  -1 -12 1054.19   32.80
  -1   1  12 1074.79   43.10
  -1   1 -12 1103.99   41.80
   1   1  12 1030.70   45.10
  -1  -1  12 1049.30   42.90
   1  -1 -12 1031.00   43.00
   1  -1 -12 1084.59   41.00
  -1   1 -12 1111.59   42.70
   1  -1 -12 1088.39   33.10
   1   1  12 1077.09   39.40
   1   1  12 1063.19   38.20
   1   1  12 1036.80   38.60
  -1  -1  12 1043.70   32.60
  -1  -1  12 1023.40   37.90
   1  -1 -12 1044.90   36.10
  -1  -1  12 1026.50   44.00
  -1  -1  12 1041.80   40.00
   1   1  12 1108.59   41.60
   1   1  12 1071.89   40.50
  -1   1 -12 1063.89   38.80
  -1   1 -12 1025.10   36.90
  -1   1 -12 1023.00   38.60
  -1  -1  12 1055.89   35.20
  -1   1 -12 1016.60   34.60
  -1  -1  12 1041.50   35.30
   1  -1 -12 1035.70   44.70
  -1  -1  12 1034.00   40.00
   1  -1 -12 1057.59   37.30
  -1   1 -12 1117.59   46.50
   1   1  12 1122.59   43.20
   1  -1 -12 1013.00   39.80
   2   1 -12   46.00   12.70
  -2  -1 -12   34.60   13.10
  -2   1  12   46.70    8.80
   2   1 -12   55.09   11.90
   2   1 -12   54.19    9.70
   2   1 -12   32.40   15.00
  -2   1  12   45.30   14.20
   2   1 -12   36.80   14.60
   2  -1  12   18.50   10.40
   2   1 -12   49.00   11.50
  -2  -1 -12   33.80   16.10
   2  -1  12   40.90    6.90
   2   1 -12   42.00    9.10
   2   1 -12   40.00    7.00
   2  -1  12   26.20    9.40
  -2   1  12   30.40   12.80
   2  -1  12   51.39   16.40
  -2   1  12   43.00   11.50
   2  -1  12   33.90    8.30
   2   1 -12   23.90   12.00
  -2  -1 -12   36.60    9.10
  -2  -1 -12   37.80   13.30
   2  -1  12   43.00   11.20
  -2   1  12   44.90   12.80
   2  -1  12   33.30   11.30
   2   1 -12   49.50   12.40
  -2  -1 -12   37.20    9.40
  -2  -1 -12   32.30    7.40
   2   1 -12   47.10   19.10
   2  -1  12   33.80   14.40
  -2   1 -12   15.90   14.60
  -2  -1  12   43.50   12.60
   2   1  12   49.99   11.10
  -2   1 -12   50.69    9.50
   2  -1 -12   28.40    6.80
   2   1  12   51.99   14.60
   2  -1 -12   42.20   13.10
   2   1  12   47.90   10.40
   2   1  12   46.20   12.40
  -2  -1  12   44.30   15.50
  -2   1 -12   60.39   16.30
  -2  -1  12   31.90   10.60
   2  -1 -12   37.10    8.50
   2  -1 -12   51.09   10.80
  -2  -1  12   61.89   17.00
  -2  -1  12   36.40   16.00
   2  -1 -12   31.70    9.30
   2  -1 -12   30.50   19.30
   2  -1 -12   32.90    7.30
   2  -1 -12   46.80   13.00
  -2   1 -12   41.50   13.60
  -2   1 -12   39.70   10.60
   2   1  12   28.20   13.10
  -2   1 -12   37.10   12.60
  -2   1 -12   32.70    9.50
   2  -1 -12   43.50   14.90
   2   1  12   22.30   16.40
  -3  -1 -12  361.06   34.20
   3   1 -12  330.37   21.30
   3  -1  12  371.06   37.80
   3  -1  12  307.67   27.90
   3  -1  12  374.96   31.00
  -3   1  12  326.77   39.50
   3  -1  12  339.47   26.90
  -3  -1 -12  322.97   26.30
   3   1 -12  377.06   33.50
   3  -1  12  328.87   22.60
   3   1 -12  292.87   30.20
   3  -1  12  359.36   29.50
   3  -1  12  300.97   25.40
   3   1 -12  308.67   21.20
  -3  -1 -12  362.26   30.20
   3  -1  12  305.37   15.00
   3   1 -12  361.56   32.00
   3   1 -12  292.87   30.10
   3   1 -12  352.46   21.30
  -3   1  12  339.27   33.30
   3  -1 -12  367.66   27.10
  -3   1 -12  363.16   34.50
   3  -1 -12  350.76   21.30
   3   1  12  358.16   30.60
   3  -1 -12  317.87   20.70
  -3  -1  12  338.07   32.80
  -3   1 -12  285.97   31.70
   3  -1 -12  331.97   19.80
   3  -1 -12  378.56   35.40
   3   1  12  361.66   33.70
   3  -1 -12  319.17   19.80
   3   1  12  301.47   41.60
   3  -1 -12  331.27   21.20
   3  -1 -12  343.47   28.70
   3   1  12  349.27   38.10
   3   1  12  331.57   25.10
  -3  -1  12  290.07   35.90
   3   1  12  405.96   27.10
  -3   1 -12  344.47   28.40
  -3  -1  12  352.36   38.40
  -4  -1 -12   95.69   32.60
   4  -1  12   50.79   25.90
   4   1 -12   30.50   20.30
   4   1 -12   57.39   13.20
  -4   1  12   -7.00   30.70
  -4   1  12   10.00   32.20
  -4  -1 -12   79.19   19.80
   4  -1  12   76.59   22.90
   4   1 -12   56.79   27.40
   4  -1 -12   15.70   14.80
   4   1  12   73.09   28.80
  -4   1 -12   50.19   27.00
  -4   1 -12   59.29   28.60
  -4  -1  12   96.99   29.50
  -4  -1  12   45.90   30.50
   4   1  12   75.09   27.60
   4  -1 -12   45.60   18.50
   4  -1 -12   27.60   24.30
  -4  -1  12   15.60   24.60
   4  -1 -12   61.69   13.00
   4  -1 -12   31.70   11.40
   0  -2  12 1915.41   58.99
   0  -2  12 1802.22   57.79
   0  -2 -12 1920.61   61.59
   0   2 -12 1852.01   63.19
   0   2 -12 1881.11   59.69
   0   2 -12 1754.22   57.09
   0  -2  12 1880.81   61.19
   0  -2 -12 1821.32   62.99
   0  -2  12 1830.52   56.29
   0  -2 -12 1737.03   56.69
   0   2  12 1759.32   54.79
   0   2 -12 1810.22   59.39
   0  -2 -12 1863.41   57.79
   0   2  12 1833.42   60.59
   0   2 -12 1853.81   60.89
   0   2 -12 1803.02   59.49
   0  -2  12 1766.32   57.89
   0  -2 -12 1846.52   57.29
   0   2  12 1800.92   48.10
   0   2  12 1891.01   57.39
   0   2 -12 1789.02   52.29
   0  -2  12 1863.91   63.59
   0   2  12 1831.72   63.39
   0  -2 -12 1866.61   49.70
   0  -2 -12 1778.02   58.49
   0  -2  12 1798.12   58.99
   1  -2  12  441.26   14.20
   1   2 -12  420.96   24.80
  -1  -2 -12  441.86   28.90
  -1  -2 -12  423.26   23.20
  -1   2  12  433.96   16.40
  -1   2  12  379.06   27.40
  -1  -2 -12  442.96   29.30
   1   2 -12  418.36   26.90
   1   2 -12  469.05   27.30
  -1   2  12  474.85   22.60
  -1  -2 -12  447.86   16.30
   1   2 -12  422.26   28.80
  -1   2  12  437.16   17.80
   1  -2  12  448.16   24.50
   1  -2  12  456.95   25.30
  -1  -2 -12  426.26   20.40
  -1   2  12  400.36   25.60
  -1  -2 -12  434.06   25.10
  -1  -2 -12  463.05   23.70
   1  -2  12  405.56   28.40
   1   2 -12  433.66   29.20
   1   2 -12  414.26   25.60
   1  -2  12  443.76   25.70
   1   2 -12  435.46   22.70
  -1   2  12  403.96   25.70
  -1  -2  12  455.55   29.30
  -1   2 -12  443.76   25.40
   1  -2 -12  433.06   29.80
   1  -2 -12  453.35   31.10
  -1  -2  12  449.06   22.10
  -1   2 -12  452.95   27.30
   1  -2 -12  450.45   18.10
   1   2  12  467.35   27.90
  -1   2 -12  434.16   32.00
   1   2  12  436.76   26.20
  -1  -2  12  431.36   22.90
   1   2  12  407.46   33.20
  -1  -2  12  434.86   29.10
  -1   2 -12  397.86   24.30
  -1  -2  12  439.76   27.30
   1  -2 -12  435.26   26.60
   1   2  12  452.75   26.20
  -1  -2  12  440.66   29.20
  -1   2 -12  457.95   24.90
  -1   2 -12  447.76   20.20
   1  -2 -12  388.56   27.30
  -1  -2  12  446.76   24.10
   1  -2 -12  468.05   23.40
  -2   2  12  343.17   30.40
   2   2 -12  297.37   21.40
   2  -2  12  280.27   28.10
  -2   2  12  374.46   31.20
   2   2 -12  289.87   19.40
   2   2 -12  325.57   26.60
  -2  -2 -12  328.97   24.00
   2   2 -12  274.37   26.30
  -2  -2 -12  268.77   28.00
   2  -2  12  309.87   27.50
  -2  -2 -12  309.57   23.80
  -2  -2 -12  333.47   28.00
  -2   2  12  285.07   24.50
  -2  -2 -12  319.87   20.20
  -2  -2 -12  339.57   20.80
   2  -2  12  300.27   23.80
  -2   2  12  302.87   23.20
  -2   2  12  320.47   12.50
   2   2 -12  292.27   30.10
   2   2 -12  310.67   23.30
   2  -2  12  265.37   24.10
   2  -2  12  309.57   23.00
   2   2 -12  346.37   41.20
   2  -2  12  248.58   28.70
  -2  -2  12  332.17   16.30
  -2   2 -12  318.47   26.60
  -2  -2  12  332.67   31.00
   2  -2 -12  316.47   21.10
  -2   2 -12  321.87   30.40
   2   2  12  308.97   28.00
   2   2  12  314.37   34.70
   2  -2 -12  313.97   23.00
  -2   2 -12  336.07   28.80
   2  -2 -12  318.87   14.30
   2   2  12  358.76   29.50
  -2   2 -12  315.67   23.70
   2   2  12  267.47   23.40
   2  -2 -12  304.97   23.30
  -2  -2  12  308.27   29.20
  -2  -2  12  301.17   15.50
  -2  -2  12  315.87   26.40
  -2  -2  12  309.37   16.70
   2  -2 -12  332.97   31.40
  -2   2 -12  301.17   21.30
  -2   2 -12  274.37   26.10
  -2  -2  12  298.87   31.50
  -3  -2 -12  548.45   20.50
   3  -2  12  473.05   33.10
   3   2 -12  540.75   45.30
   3   2 -12  547.35   29.40
   3   2 -12  531.75   33.10
   3  -2  12  562.14   33.60
  -3   2  12  530.15   47.10
  -3  -2 -12  459.25   51.59
  -3  -2 -12  511.55   38.70
   3   2 -12  582.74   30.60
   3  -2  12  493.95   20.60
  -3   2  12  557.84   37.00
  -3   2  12  561.74   69.49
   3  -2  12  564.44   35.50
  -3  -2 -12  544.45   19.90
   3  -2  12  513.45   42.80
   3   2 -12  571.24   30.80
  -3  -2 -12  584.34   39.60
   3   2 -12  571.64   37.70
  -3   2  12  554.64   38.30
   3  -2  12  560.44   38.60
   3  -2 -12  545.45   29.80
   3   2  12  556.94   50.19
   3  -2 -12  624.04   61.49
   3   2  12  617.24   50.89
  -3  -2  12  550.04   45.10
   3  -2 -12  553.24   32.40
   3  -2 -12  531.85   28.00
  -3   2 -12  575.64   38.30
  -3   2 -12  582.54   43.90
  -3   2 -12  524.45   43.20
   3  -2 -12  544.05   33.20
  -3  -2  12  545.75   41.80
  -3  -2  12  555.74   31.30
  -3  -2  12  577.24   49.40
   3   2  12  492.45   37.40
   3   2  12  465.25   42.10
   4  -2  12  392.56   48.10
  -4   2  12  412.26   45.00
   4   2 -12  468.85   31.40
  -4  -2 -12  519.35   52.19
  -4   2  12  454.55   60.39
   4  -2  12  470.95   42.30
   4   2 -12  448.76   42.20
   4  -2 -12  395.96   21.40
   4   2  12  426.26   55.39
   4  -2 -12  428.26   28.30
  -4  -2  12  343.67   53.09
  -4   2 -12  368.86   52.29
   4  -2 -12  485.65   50.99
  -4   2 -12  332.97   51.09
   4  -2 -12  374.36   37.50
  -4  -2  12  445.66   49.60
   4  -2 -12  435.76   21.50
   4   2  12  440.16   51.99
   0   3 -12  711.13   35.40
   0  -3 -12  702.83   37.90
   0   3  12  720.43   32.80
   0   3 -12  718.03   37.90
   0  -3 -12  686.83   33.50
   0  -3 -12  726.33   31.40
   0   3 -12  685.83   39.00
   0  -3  12  715.53   35.30
   0  -3 -12  724.33   33.10
   0   3 -12  720.83   31.60
   0  -3  12  680.33   32.40
   0   3  12  707.03   34.20
   0  -3  12  660.93   38.40
   0   3 -12  711.13   35.10
   0   3 -12  672.13   33.90
   0   3 -12  672.73   34.60
   0  -3  12  711.63   33.50
   0   3  12  689.33   30.50
   0  -3  12  661.03   34.60
   0   3 -12  714.83   27.70
   0  -3  12  675.03   34.80
   0   3  12  689.93   34.30
   1   3 -12  214.58   20.70
   1  -3  12  128.39   18.40
   1   3 -12  209.58   27.50
   1  -3  12  191.18   21.00
  -1  -3 -12  198.98   18.30
  -1  -3 -12  144.79   24.70
  -1   3  12  185.58   11.20
   1  -3  12  149.69   19.70
  -1   3  12  206.68   16.20
  -1  -3 -12  166.18   19.60
   1   3 -12  201.48   20.20
   1  -3  12  165.18   22.30
   1  -3  12  213.88   27.70
   1   3 -12  188.88   24.00
  -1   3  12  182.38   21.30
   1   3 -12  173.88   24.50
  -1  -3 -12  207.38   24.70
  -1  -3 -12  189.68   17.80
   1   3 -12  199.28   22.00
   1   3 -12  178.48    9.60
  -1   3  12  197.18   24.10
  -1   3  12  151.18   22.60
   1   3 -12  198.78   25.20
   1  -3  12  156.28   22.80
  -1   3  12  162.18   19.50
   1   3  12  171.08   22.20
   1  -3 -12  166.98    8.20
  -1  -3  12  169.78   17.30
   1  -3 -12  202.08   19.90
  -1  -3  12  195.18   23.90
  -1   3 -12  187.78   16.10
  -1   3 -12  175.58   21.10
   1   3  12  188.98   19.50
  -1  -3  12  210.08   27.50
  -1   3 -12  185.28   24.20
   1   3  12  166.68   23.10
   1  -3 -12  193.08   22.60
  -1   3 -12  172.28   19.90
  -1  -3  12  167.98   17.50
   1  -3 -12  140.09   24.50
  -1  -3  12  142.89   23.80
  -1   3 -12  147.39   19.00
  -1  -3  12  186.88   20.90
   1   3  12  147.69   24.40
  -1   3 -12  176.48   24.30
  -1  -3  12  194.98   20.20
   2   3 -12  261.77   25.50
  -2  -3 -12  193.18   30.10
  -2  -3 -12  212.88   21.30
   2   3 -12  238.68   22.80
  -2   3  12  294.17   31.40
  -2   3  12  214.18   19.90
  -2  -3 -12  231.38   21.10
   2  -3  12  218.88   26.50
   2  -3  12  160.38   23.80
   2   3 -12  219.08   22.70
  -2  -3 -12  187.18   25.30
  -2   3  12  227.28   33.10
   2   3 -12  228.88   23.10
  -2  -3 -12  256.07   23.60
  -2  -3 -12  296.37   32.00
   2  -3  12  222.58   24.80
  -2   3  12  244.38   19.40
  -2   3  12  222.38   25.10
   2   3  12  242.48   31.30
  -2  -3  12  211.58   30.30
   2  -3 -12  254.07   25.10
  -2   3 -12  238.68   26.80
  -2  -3  12  246.28   17.60
  -2  -3  12  240.58   19.20
  -2  -3  12  209.68   19.50
  -2   3 -12  184.68   29.00
   2  -3 -12  228.88   20.90
  -2  -3  12  248.48   27.60
   2   3  12  195.88   29.10
   2  -3 -12  191.48   13.70
  -2   3 -12  206.48   23.10
  -2   3 -12  222.08   29.20
  -2   3 -12  264.57   28.40
   3   3 -12  413.96   33.50
  -3  -3 -12  378.56   22.00
  -3   3  12  385.56   30.20
  -3  -3 -12  395.56   22.10
   3   3 -12  417.96   30.80
   3  -3  12  402.26   33.30
  -3  -3 -12  326.77   41.90
   3   3 -12  402.76   48.80
   3  -3  12  369.96   36.10
   3  -3  12  402.26   40.40
  -3   3  12  370.46   33.10
  -3  -3 -12  405.46   35.00
  -3   3  12  353.26   45.00
   3   3 -12  347.67   29.90
  -3  -3  12  368.96   42.40
   3  -3 -12  396.56   40.60
   3   3  12  347.17   40.60
  -3   3 -12  370.46   39.70
   3  -3 -12  371.86   30.10
   3  -3 -12  369.06   28.40
  -3  -3  12  394.66   45.60
   3  -3 -12  331.97   39.70
  -3   3 -12  457.65   44.20
   4  -3  12   39.30   33.50
  -4   3  12   26.20   35.40
   4   3 -12   34.60   22.60
   4  -3  12   43.10   24.10
  -4  -3 -12   23.30   28.30
  -4  -3 -12   61.79   38.50
  -4   3  12   78.29   33.60
   4   3 -12   39.20   18.70
   4  -3 -12   56.19   15.40
   4  -3 -12   61.79   31.70
  -4  -3  12   -4.50   33.00
  -4   3 -12  109.79   33.50
   4  -3 -12   43.10   18.80
   4   3  12   55.69   33.20
   4   3  12   22.40   30.20
  -4   3 -12   47.20   36.80
  -4  -3  12   70.09   39.20
   0  -4 -12 1461.05   64.39
   0  -4  12 1419.06   54.79
   0   4  12 1476.25   51.59
   0   4 -12 1469.95   53.09
   0  -4 -12 1487.85   50.69
   0   4  12 1526.75   62.99
   0  -4 -12 1510.35   55.89
   0  -4  12 1502.85   65.79
   0   4 -12 1522.75   46.20
   0   4 -12 1404.16   58.09
   0  -4 -12 1394.46   49.10
   0   4 -12 1397.46   58.49
   0   4  12 1410.96   52.69
   0  -4  12 1477.05   56.99
   0   4  12 1412.86   64.09
   0   4 -12 1368.56   61.79
   0   4  12 1485.35   57.89
   0   4  12 1403.06   53.19
   0   4 -12 1403.56   58.59
   1  -4  12    6.80   10.90
  -1  -4 -12   16.90   11.00
  -1   4  12   16.30   10.70
  -1  -4 -12   11.40   13.20
  -1  -4 -12    5.60   18.90
   1   4 -12   19.80   20.10
   1  -4  12   36.10   15.30
   1   4 -12   35.90   15.90
  -1   4  12   26.80   16.70
  -1  -4 -12   36.40   15.20
  -1   4  12   19.70   12.30
   1   4 -12   23.10   12.50
   1  -4  12   38.10   14.70
   1   4 -12   27.20   14.90
   1  -4  12   45.40   19.80
  -1   4  12   21.80    7.50
  -1  -4 -12   32.40   12.20
   1  -4  12   -2.00   14.10
  -1  -4  12   42.00   12.60
   1   4  12   27.30   18.10
   1  -4 -12   12.20   16.10
   1  -4 -12   36.50    8.90
   1   4  12    6.90   17.80
  -1   4 -12   26.60   15.60
   1  -4 -12   33.50   17.40
  -1   4 -12   39.20   15.60
   1   4  12  -22.50   18.20
  -1  -4  12   26.90   16.80
  -1  -4  12   16.90   11.90
   1  -4 -12   28.10   13.10
  -1   4 -12   21.10   13.40
  -1   4 -12    7.40   12.80
  -1   4 -12   30.60   11.40
  -2   4  12  301.27   36.20
  -2   4  12  288.27   29.40
   2   4 -12  289.27   33.10
  -2  -4 -12  303.17   25.60
  -2  -4 -12  320.77   36.80
  -2  -4 -12  291.87   36.50
  -2  -4 -12  276.77   20.10
  -2   4  12  290.47   38.00
  -2   4  12  302.07   14.80
   2   4 -12  312.67   31.20
  -2  -4 -12  297.17   26.20
   2  -4  12  263.87   40.80
   2  -4  12  292.27   41.30
   2   4 -12  324.87   32.00
   2  -4  12  303.27   32.00
  -2  -4  12  279.37   23.20
   2   4  12  253.27   41.50
  -2   4 -12  250.67   33.60
   2  -4 -12  298.27   27.70
   2  -4 -12  275.67   19.70
  -2  -4  12  348.37   27.70
  -2   4 -12  332.37   52.59
  -2  -4  12  308.47   36.20
   2  -4 -12  268.87   31.50
  -2  -4  12  339.37   38.30
  -2   4 -12  302.97   28.90
  -2  -4  12  269.37   29.20
  -2   4 -12  347.97   36.00
   3   4 -12   10.70   16.90
   3   4 -12    2.70   18.20
  -3   4  12    3.20   17.30
  -3  -4 -12   51.29   25.60
  -3  -4 -12  -20.00   20.80
  -3   4  12   18.30   27.00
  -3  -4 -12    9.10   14.30
   3  -4  12  -10.30   23.50
  -3  -4 -12  -25.20   13.10
   3  -4  12  -23.70   18.50
  -3   4  12   -0.80   25.70
  -3   4 -12  -22.80   27.70
  -3  -4  12   28.50   26.10
  -3   4 -12   40.90   26.80
   3   4  12  -45.10   23.40
  -3  -4  12  -15.80   25.20
   3  -4 -12    2.10   17.90
  -4   4  12  224.28   53.29
   4   4 -12  213.48   32.50
   4   4 -12  217.28   33.80
  -4   4  12  212.18   52.89
   4  -4  12  287.87   46.60
   4  -4  12  351.16   61.99
   4  -4  12  321.57   41.00
  -4  -4 -12  271.87   42.30
   4  -4 -12  325.67   40.30
   4  -4 -12  237.18   47.10
   4   4  12  233.68   41.20
  -4   4 -12  219.08   41.50
  -4   4 -12  284.37   57.59
  -4  -4  12  334.57   55.19
   4  -4 -12  267.57   36.00
   0  -5  12  133.59   24.00
   0   5 -12  164.48   25.80
   0  -5 -12  191.08   33.70
   0   5  12  142.99   22.50
   0   5  12  116.09   20.40
   0  -5  12  165.28   33.80
   0   5  12  132.79   23.80
   0  -5 -12  142.59   23.00
   0  -5  12  145.09   23.50
   0   5 -12  171.98   28.00
   0   5 -12  141.39   23.30
   0  -5 -12  204.38   25.00
   0   5  12  175.68   25.30
   0   5 -12  151.38   28.10
   1   5 -12  402.26   57.79
  -1  -5 -12  587.04   39.10
   1  -5  12  545.85   53.09
   1  -5  12  525.55   39.20
   1   5 -12  560.74   42.40
  -1   5  12  496.25   44.00
  -1   5  12  502.65   24.70
  -1  -5 -12  582.44   50.99
   1  -5  12  555.34   38.80
   1  -5  12  557.44   34.00
  -1   5  12  541.55   37.90
  -1  -5 -12  515.45   39.80
  -1  -5 -12  588.14   37.50
  -1  -5 -12  516.55   36.60
   1   5 -12  536.55   42.40
  -1  -5  12  550.04   42.70
  -1   5 -12  568.64   42.30
  -1   5 -12  563.24   33.50
  -1   5 -12  523.95   42.00
   1   5  12  553.24   44.80
  -1   5 -12  417.76   41.00
   1   5  12  483.55   46.80
   1  -5 -12  495.95   46.40
   1  -5 -12  542.05   29.20
  -1  -5  12  556.54   49.40
  -1  -5  12  536.85   35.90
  -1   5 -12  473.65   45.40
  -1   5 -12  515.15   33.90
  -1  -5  12  563.24   38.50
   1  -5 -12  579.34   38.60
   1   5  12  592.04   61.19
   2  -5  12   53.39   15.50
  -2   5  12   74.69   26.40
  -2   5  12    4.00   27.20
   2   5 -12   53.69   22.40
   2   5 -12   24.10   19.90
  -2  -5 -12   37.10   28.90
  -2  -5 -12   79.59   26.70
   2  -5  12   53.69   23.30
  -2  -5 -12   19.10   21.00
  -2  -5 -12   50.79   21.30
   2  -5  12   34.10   36.00
  -2   5  12   31.90   15.40
   2  -5 -12   21.60   21.00
  -2   5 -12   89.89   22.30
   2   5  12   82.69   28.60
  -2   5 -12   39.90   20.60
   2  -5 -12   80.29   21.20
  -2  -5  12   46.70   23.70
  -2   5 -12   39.80    8.10
  -2  -5  12   62.19   16.60
  -2  -5  12   62.19   32.50
   2  -5 -12   66.89   13.00
   3   5 -12  299.87   41.30
   3  -5  12  298.17   47.60
   3  -5  12  296.07   43.70
  -3   5  12  416.26   60.69
  -3  -5 -12  385.96   55.89
   3   5 -12  255.57   40.40
  -3   5  12  309.27   51.89
   3  -5  12  385.76   43.70
  -3   5  12  319.07   39.20
  -3  -5  12  300.17   52.09
   3  -5 -12  350.46   41.90
  -3  -5  12  423.06   62.79
   3  -5 -12  357.26   42.00
   3   5  12  292.17   45.50
  -3   5 -12  490.75   59.69
  -3   5 -12  376.26   56.49
   0  -6 -12  619.24   42.40
   0  -6  12  585.24   44.80
   0   6 -12  602.54   48.20
   0  -6  12  474.55   44.50
   0  -6  12  524.75   42.80
   0   6  12  582.64   40.50
   0   6  12  507.25   43.70
   0  -6 -12  435.76   42.60
   0  -6 -12  424.16   55.59
   0   6  12  588.94   42.60
   0  -6  12  533.65   56.79
   0   6 -12  546.45   49.20
   1  -6  12   25.30   22.60
  -1  -6 -12   28.60   23.20
   1   6 -12    6.00   22.40
  -1   6  12   23.40   23.70
   1  -6  12   14.80   21.30
  -1  -6 -12   16.80   19.20
  -1  -6 -12   17.70   23.50
  -1   6  12   22.40   17.50
  -1  -6 -12   31.90   30.20
   1  -6  12   63.39   28.80
   1   6 -12  -12.50   21.40
   1  -6  12   13.00   22.90
   1  -6 -12   18.30   23.50
  -1  -6  12    6.80   25.40
  -1   6 -12    1.90   20.90
  -1  -6  12   71.09   23.90
  -1  -6  12   57.49   24.10
   1   6  12   60.89   26.70
   1  -6 -12  103.79   34.30
   1  -6 -12   27.20   19.40
  -1  -6  12   39.80   22.50
  -1   6 -12   23.40   22.50
  -1   6 -12   39.20   23.10
  -1  -6  12   60.89   30.90
  -2  -6 -12  328.47   52.89
   2  -6  12  428.86   61.09
   2  -6  12  316.67   43.40
  -2  -6 -12  319.57   38.70
   2  -6  12  328.87   43.60
  -2  -6 -12  344.87   39.00
  -2   6  12  322.97   58.89
   2   6 -12  372.26   49.60
   2   6 -12  385.26   46.20
  -2   6  12  384.36   54.49
  -2  -6 -12  269.37   39.70
  -2   6  12  305.77   39.90
  -2   6 -12  330.97   44.90
  -2  -6  12  413.86   53.39
   2  -6 -12  366.86   43.10
  -2  -6  12  380.26   38.30
   2   6  12  422.16   62.19
   2  -6 -12  426.96   52.59
  -2  -6  12  479.35   58.29
  -2   6 -12  380.16   54.89
   0  -7 -12   60.89   42.20
   0   7 -12  120.89   35.50
   0  -7  12  143.79   32.30
   0   7 -12   83.59   35.20
   0   7 -12   82.49   30.10
   0  -7  12  150.48   50.59
   0  -7  12   70.09   32.20
   0   7  12  113.79   27.90
   0  -7 -12   33.60   32.80
   1  -7  12  305.67   51.09
  -1  -7 -12  227.38   38.50
   1  -7  12  249.08   41.80
   1  -7  12  211.58   38.60
  -1  -7 -12  190.28   33.70
  -1   7  12  228.18   44.00
   1   7 -12  190.88   42.60
  -1   7  12  263.07   44.10
   1   7 -12  183.28   37.10
  -1  -7 -12  342.77   57.39
  -1  -7  12  221.18   36.40
  -1   7 -12  202.68   40.80
  -1  -7  12  263.37   46.30
  -1  -7  12  312.27   50.69
   1   7  12  281.37   46.10
  -1  -7  12  236.48   43.20
   1  -7 -12  172.58   34.90
  -1   7 -12  181.58   42.90
   0   0 -13    0.90    5.90
   0   0 -13    4.10    5.30
   0   0  13    2.80    6.20
   0   0  13    2.20    6.50
   0   0 -13   -0.30    5.20
   0   0 -13    6.50    6.10
   0   0  13   10.80    6.70
   0   0  13    4.40    6.70
   0   0 -13    5.00    5.10
   0   0 -13   -9.30    6.10
   0   0  13    3.70    6.40
   0   0  13   -2.40    7.60
   0   0  13   -3.00    7.70
   0   0  13    1.40    5.20
  -1   0 -13  647.44   32.30
   1   0  13  603.34   32.50
   1   0 -13  608.84   29.70
   1   0  13  621.94   32.20
  -1   0 -13  651.03   32.30
   1   0  13  616.34   27.90
  -1   0  13  584.34   32.20
  -1   0 -13  629.54   27.60
  -1   0  13  622.24   25.40
  -1   0  13  625.34   22.50
   1   0 -13  597.44   26.80
   1   0  13  680.73   30.50
   1   0 -13  659.23   30.50
  -1   0  13  630.04   30.00
   1   0 -13  624.44   25.60
  -1   0 -13  628.24   24.80
  -1   0  13  656.13   25.20
  -1   0  13  621.54   19.50
   1   0  13  631.54   30.00
  -1   0  13  640.44   25.30
   1   0 -13  692.63   32.30
   1   0 -13  610.04   30.50
  -1   0  13  620.14   28.30
   1   0 -13  631.74   26.30
   1   0  13  661.33   29.60
  -1   0  13  650.93   33.90
   1   0  13  621.14   27.40
   1   0  13  628.74   30.10
  -1   0 -13  633.54   28.40
  -1   0  13  613.64   32.20
  -2   0 -13   79.49   18.00
  -2   0 -13  114.89   16.90
   2   0 -13  129.79   13.30
  -2   0 -13  128.79   15.90
  -2   0 -13  145.69   20.00
  -2   0  13  118.29   19.80
   2   0 -13  161.88   19.90
   2   0  13  148.79   21.20
   2   0  13  114.09   17.00
   2   0 -13  141.29   15.70
   2   0  13  149.99   17.60
  -2   0  13  120.89   21.50
   2   0 -13  163.68   29.40
   2   0  13  131.19   14.10
   2   0  13  162.18   24.90
  -2   0  13  148.29   18.40
  -2   0  13  117.89   16.00
  -2   0  13  105.39   19.90
   2   0 -13  102.39   13.50
   2   0  13  133.79   20.40
   2   0 -13  107.09   19.20
  -2   0 -13  117.89   11.80
   2   0  13  112.79   18.90
  -2   0 -13  125.29   15.00
   2   0  13  118.29   11.60
  -2   0  13  116.29   20.10
   2   0 -13  117.39   13.10
   3   0 -13  905.31   48.20
   3   0  13  833.82   47.30
  -3   0  13  872.01   51.89
  -3   0  13  857.51   56.39
   3   0  13  927.21   53.99
   3   0 -13  949.11   49.10
   3   0 -13  865.71   36.90
  -3   0 -13  861.51   43.00
   3   0  13  880.11   42.80
  -3   0  13  859.91   43.90
  -3   0 -13  886.31   45.50
   3   0 -13  873.91   33.70
   3   0 -13  863.41   34.00
   3   0  13  839.02   27.50
   3   0  13  882.51   40.30
   3   0  13  904.41   35.30
   3   0  13  907.41   46.70
   3   0 -13  850.81   33.10
   3   0  13  847.02   39.80
  -3   0 -13  847.22   47.70
   4   0 -13  264.37   42.00
   4   0 -13  265.77   35.00
   4   0  13  258.07   47.00
   4   0  13  262.57   40.00
  -4   0  13  294.37   38.90
   4   0 -13  263.57   39.30
  -4   0  13  210.38   38.20
   4   0  13  274.07   23.40
   4   0 -13  302.47   22.50
  -4   0 -13  292.47   41.10
  -4   0 -13  295.67   42.00
   4   0 -13  220.68   21.30
  -4   0  13  205.38   33.90
   0   1 -13  333.97   20.30
   0   1  13  326.17   20.40
   0  -1  13  342.87   19.90
   0  -1 -13  336.97   19.30
   0   1 -13  330.57   21.70
   0   1 -13  350.56   20.60
   0  -1 -13  317.47   19.90
   0  -1  13  321.17   20.60
   0  -1 -13  297.27   19.40
   0  -1  13  309.87   18.60
   0  -1  13  351.46   20.50
   0  -1  13  335.67   21.50
   0   1 -13  326.97   20.70
   0  -1 -13  369.86   21.30
   0  -1 -13  333.67   23.30
   0   1  13  315.47   19.40
   0  -1  13  321.97   19.90
   0   1  13  345.27   16.30
   0  -1  13  335.87   24.00
   0   1  13  322.37   18.40
   0   1  13  333.47   23.70
   0  -1  13  323.37   21.10
   0   1  13  337.97   20.80
   0   1 -13  313.67   20.10
   0   1 -13  323.67   23.70
   0   1  13  309.57   19.40
   1  -1  13  177.38   17.60
   1  -1  13  164.18   18.70
   1  -1  13  165.48   19.30
   1  -1  13  177.68   11.80
   1   1 -13  168.98   15.20
   1  -1  13  193.08   17.00
  -1   1  13  189.08   19.30
  -1   1  13  177.38   14.50
   1   1 -13  156.48   19.50
   1  -1  13  158.68   16.60
  -1  -1 -13  182.48   20.30
   1   1 -13  164.58   16.10
   1  -1  13  167.68   15.40
   1   1 -13  189.38   18.00
   1   1 -13  149.09   16.80
   1   1 -13  161.58   18.50
   1  -1  13  173.88   14.10
  -1  -1 -13  151.38   15.10
  -1   1  13  173.18    8.80
  -1   1  13  157.18   17.60
  -1  -1 -13  194.08   20.10
  -1   1  13  160.58    9.60
  -1  -1 -13  149.29   14.70
  -1   1  13  154.98   19.10
  -1   1  13  178.98   12.40
   1   1 -13  182.68   15.10
   1   1 -13  176.58   15.80
  -1  -1 -13  163.88   12.20
  -1  -1  13  169.08   16.00
  -1   1 -13  158.58   14.70
  -1   1 -13  171.18   19.80
  -1  -1  13  166.18   19.20
   1  -1 -13  190.28   15.20
  -1   1 -13  164.18   22.80
   1   1  13  183.68   21.10
  -1   1 -13  153.28   15.10
   1  -1 -13  187.58   22.60
   1   1  13  132.59   14.80
  -1  -1  13  168.48   17.30
   1   1  13  191.58   16.90
   1   1  13  176.88   17.10
   1  -1 -13  185.18   13.20
  -1  -1  13  166.78   14.60
   1   1  13  156.78   16.20
  -1   1 -13  192.98   19.30
  -1   1 -13  172.48   13.60
  -1  -1  13  161.48   11.50
  -1   1 -13  162.78   15.10
   1  -1 -13  196.38   17.70
  -1  -1  13  158.58   18.80
  -1  -1  13  186.68   14.30
   1   1  13  152.98   18.90
  -1  -1  13  167.58   21.50
   1  -1 -13  162.98   17.30
   1  -1 -13  159.68   18.60
   1  -1 -13  155.98   14.00
   1   1  13  187.78   20.20
  -1  -1  13  151.58   18.30
   2  -1  13  262.27   15.40
  -2  -1 -13  287.57   25.00
   2   1 -13  246.38   13.70
  -2   1  13  251.37   15.70
   2   1 -13  278.17   32.00
   2   1 -13  239.98   20.60
   2   1 -13  270.47   23.70
   2   1 -13  218.78   20.30
  -2   1  13  242.18   28.70
   2  -1  13  295.27   28.30
   2  -1  13  271.77   21.20
   2  -1  13  251.57   21.00
  -2  -1 -13  262.07   18.80
   2   1 -13  267.07   18.50
   2   1 -13  286.87   19.00
   2   1 -13  288.87   21.30
  -2  -1 -13  263.47   18.50
   2  -1  13  293.57   29.50
  -2  -1 -13  247.48   27.20
   2   1 -13  246.48   26.70
  -2   1  13  244.28   24.50
   2  -1  13  272.67   26.40
  -2  -1 -13  254.37   23.10
  -2   1  13  254.07   24.50
  -2   1  13  263.37   21.90
  -2  -1 -13  255.17   18.00
   2  -1  13  286.37   23.60
   2   1 -13  225.08   35.50
   2  -1  13  288.57   18.70
   2   1  13  272.47   24.70
  -2   1 -13  243.08   24.30
  -2   1 -13  266.37   18.70
  -2   1 -13  261.57   22.60
  -2  -1  13  261.67   30.70
  -2  -1  13  259.47   26.70
  -2  -1  13  250.17   11.00
   2   1  13  265.67   27.80
  -2  -1  13  269.27   22.00
   2   1  13  270.97   25.80
   2  -1 -13  253.27   25.20
   2  -1 -13  226.98   17.20
   2   1  13  237.28   20.70
   2  -1 -13  274.87   15.00
   2  -1 -13  264.07   20.90
   2  -1 -13  266.07   22.50
   2   1  13  295.87   33.00
  -2   1 -13  211.18   28.00
   2  -1 -13  258.57   17.50
  -2   1 -13  247.88   19.00
  -2  -1  13  261.67   26.30
  -2   1 -13  241.98   23.60
   2  -1 -13  260.67   25.60
   2   1  13  253.67   21.30
  -2  -1  13  270.87   11.10
  -2  -1  13  288.17   22.60
  -3  -1 -13   60.29   16.70
   3  -1  13   45.20   17.90
   3   1 -13   45.60   11.40
  -3  -1 -13   32.10   14.40
   3  -1  13   33.40    7.00
   3  -1  13   40.30   20.20
   3   1 -13   42.30    8.70
   3   1 -13   40.40   10.90
  -3   1  13   32.20   19.70
  -3   1  13   51.39   26.20
   3   1 -13   49.00   19.10
   3  -1  13   45.20   14.50
   3   1 -13   53.59   12.10
  -3  -1 -13   54.49   18.00
   3   1 -13   24.60   17.10
   3  -1  13   63.29   13.20
   3  -1  13   50.79   17.20
   3  -1  13   66.29   18.50
   3   1 -13   36.10   17.30
   3   1 -13   30.10   14.40
   3  -1  13   46.30   16.60
   3   1  13   50.69   14.20
   3   1  13   52.09   17.40
   3  -1 -13   40.40    9.70
   3  -1 -13   36.00   10.30
  -3   1 -13   15.00   14.90
   3  -1 -13   53.69   14.60
   3  -1 -13   50.69   11.00
   3   1  13   60.29   17.50
   3  -1 -13   36.80   10.90
  -3   1 -13   16.00   17.40
   3  -1 -13   22.70   13.60
   3   1  13   37.50   18.50
  -3  -1  13   35.00   25.50
  -3   1 -13   53.59   25.20
   3  -1 -13   67.29   18.50
  -3  -1  13   54.69   21.30
   3   1  13   58.59   16.00
   3  -1 -13   42.20   11.80
   4  -1  13  354.26   39.60
  -4   1  13  395.56   48.00
   4  -1  13  354.66   47.90
  -4  -1 -13  342.47   36.30
   4   1 -13  398.86   26.60
  -4   1  13  274.97   43.10
   4   1 -13  350.06   42.20
  -4  -1 -13  435.06   52.49
   4   1  13  328.77   45.20
  -4  -1  13  433.56   57.99
   4  -1 -13  323.27   24.30
   4  -1 -13  385.76   24.60
   4   1  13  329.17   47.50
  -4  -1  13  357.76   48.50
  -4   1 -13  361.46   48.90
  -4  -1  13  341.97   48.80
  -4   1 -13  345.27   50.39
   4  -1 -13  397.36   41.10
   4  -1 -13  349.47   43.20
   0  -2 -13   60.29   12.50
   0  -2  13   62.99   12.30
   0  -2  13   63.09   12.50
   0   2  13   65.39   11.90
   0   2  13   59.19   12.20
   0   2 -13   56.09   11.10
   0  -2  13   55.09   11.70
   0   2 -13   63.49   10.20
   0   2  13   60.99   14.50
   0  -2 -13   56.29   13.70
   0   2  13   53.29    8.40
   0   2 -13  102.19   15.60
   0  -2 -13   89.39   14.70
   0   2  13   72.99   12.10
   0   2 -13   72.79   13.30
   0   2 -13   44.60   10.00
   0  -2  13   63.39   15.00
   0  -2 -13   78.59   12.70
   0  -2 -13   72.79   12.00
   0  -2  13   52.19    9.90
   0  -2  13   64.79   11.80
   0   2 -13   72.89   10.20
   0   2 -13   83.79   15.00
   0  -2  13   53.49   11.20
   0  -2 -13   84.59   14.30
   0   2 -13   74.69   14.10
  -1   2  13   15.20    8.70
   1  -2  13   10.70   10.60
  -1   2  13   14.40   13.80
   1   2 -13   26.60   11.10
  -1  -2 -13   16.90    9.20
   1   2 -13   18.70    9.50
   1   2 -13   18.30    8.80
   1  -2  13   13.50   11.90
  -1  -2 -13   21.00    9.00
   1   2 -13   31.00   11.80
  -1  -2 -13   21.70   11.10
  -1   2  13   23.60    8.90
   1  -2  13   30.60    5.60
  -1   2  13   16.60   10.90
   1  -2  13   16.30   14.20
   1   2 -13    4.00   11.70
  -1  -2 -13   23.90    5.90
   1  -2  13   19.30   10.10
   1  -2  13   35.10   10.00
  -1  -2 -13   37.80   13.30
  -1   2  13   22.20    6.50
   1   2 -13   10.30   10.20
  -1  -2 -13   18.90    7.10
  -1  -2 -13   12.80    9.30
   1  -2  13    7.50   10.60
  -1   2  13   20.80    6.10
  -1  -2  13   17.60    8.40
   1  -2 -13   16.70    7.60
   1  -2 -13   18.80   10.60
   1   2  13   27.70   11.60
   1  -2 -13   33.80    9.80
  -1   2 -13   24.80   10.80
  -1   2 -13   10.20    7.60
  -1   2 -13   22.50   10.10
  -1   2 -13   19.40   10.30
   1   2  13   35.30   10.10
  -1  -2  13   18.00    8.50
   1  -2 -13    4.50   10.10
   1   2  13   24.80   11.00
  -1  -2  13   32.20   11.90
  -1  -2  13    6.80   10.80
   1   2  13    8.00   10.80
   1  -2 -13   12.40   12.90
   1  -2 -13   15.20    6.60
  -1   2 -13   18.70    7.00
  -1   2 -13   10.30   14.30
   1   2  13    2.50   13.10
  -1   2 -13   31.40   12.10
  -1  -2  13    6.80   10.90
  -1  -2  13   14.80   13.20
  -1  -2  13   22.90    9.30
   1  -2 -13   13.40    7.80
  -2  -2 -13   49.00   11.30
   2  -2  13   14.70   11.20
  -2  -2 -13   38.60   10.80
   2  -2  13   37.90   15.60
   2   2 -13   35.90   12.50
   2  -2  13   44.10   13.90
   2   2 -13   13.70   14.40
   2   2 -13   33.30   10.00
   2   2 -13   38.60   10.90
  -2  -2 -13   32.60   15.00
  -2   2  13   28.40   15.90
   2  -2  13   45.20   14.70
   2  -2  13   39.50   13.00
  -2   2  13   28.30   11.00
  -2   2  13   47.10   15.00
  -2   2  13   45.70   13.90
   2   2 -13   45.70   12.50
  -2  -2 -13   31.10   13.30
  -2  -2 -13   41.80   12.50
   2   2 -13   15.50   15.60
   2   2 -13   40.40    9.70
  -2  -2 -13   49.10   14.40
   2  -2 -13   22.40   10.70
  -2   2 -13   40.60   17.30
   2   2  13   22.50   13.80
   2  -2 -13   25.30    9.90
  -2  -2  13   27.00   17.50
   2  -2 -13   21.70   12.90
   2  -2 -13   32.90   10.20
  -2   2 -13   56.89   16.00
  -2  -2  13   35.40   13.60
   2   2  13   64.99   15.60
  -2   2 -13   17.60   16.10
  -2   2 -13   45.10   13.10
  -2  -2  13   30.30   17.30
  -2  -2  13   41.60   11.70
   2   2  13   70.19   22.60
  -2   2 -13   22.40   10.30
  -2   2 -13   38.30   12.00
   2   2  13   46.30   14.10
  -2  -2  13   37.90   14.60
   3   2 -13  517.85   37.70
  -3  -2 -13  480.95   38.60
   3   2 -13  496.75   29.40
  -3  -2 -13  406.96   29.80
   3  -2  13  512.95   35.70
   3   2 -13  465.95   30.10
  -3   2  13  539.55   38.10
   3   2 -13  449.56   47.50
   3   2 -13  557.04   26.90
   3  -2  13  474.35   18.10
  -3   2  13  442.76   46.00
   3  -2  13  441.06   32.70
  -3   2  13  450.55   45.50
  -3  -2 -13  366.66   54.99
   3  -2  13  580.24   37.80
   3   2 -13  470.25   32.50
  -3   2  13  555.04   38.30
  -3  -2 -13  487.75   38.50
  -3   2 -13  555.94   43.30
   3  -2 -13  472.45   32.70
  -3  -2  13  549.35   42.90
   3  -2 -13  403.26   38.40
  -3  -2  13  522.05   31.80
  -3   2 -13  513.25   20.80
  -3   2 -13  586.04   38.80
   3   2  13  447.36   48.70
   3  -2 -13  488.15   27.50
   3  -2 -13  508.45   28.10
   3   2  13  498.55   38.30
  -3  -2  13  517.45   48.30
  -3  -2  13  504.95   45.20
   3  -2 -13  474.25   43.50
  -3   2 -13  537.15   41.20
   3   2  13  434.76   35.10
  -4   2  13   60.49   35.40
  -4  -2 -13   30.80   28.80
   4   2 -13   25.50   22.70
   4  -2  13   65.89   30.70
   4  -2  13   40.70   21.40
  -4   2  13   62.09   28.10
   4   2 -13   40.80   16.30
   4  -2 -13   31.80   13.40
  -4  -2  13   44.30   27.70
  -4  -2  13   79.59   30.60
   4  -2 -13   42.40   12.10
   4   2  13   49.40   29.20
   4   2  13   41.00   30.00
   4  -2 -13   42.40   11.50
  -4  -2  13  -27.80   26.60
   4  -2 -13   60.19   20.30
   4  -2 -13   37.40   15.10
  -4   2 -13   -1.90   29.00
   4  -2 -13   25.60   26.10
  -4   2 -13   74.39   32.40
   0  -3 -13   16.90   10.40
   0   3 -13   10.70   10.20
   0  -3  13    2.30   11.00
   0   3 -13    1.80   12.60
   0   3 -13   -1.10   12.10
   0  -3  13   -8.10   14.70
   0   3 -13   -3.00    6.90
   0  -3 -13   -1.30    8.30
   0  -3 -13   -7.70   12.40
   0  -3 -13   -4.30    8.10
   0   3 -13   20.00   10.70
   0   3  13    2.40    7.80
   0  -3  13   -8.30    7.90
   0   3  13    4.10    9.70
   0   3  13  -24.90   13.00
   0   3  13   -5.40    8.30
   0   3 -13   -7.90   11.90
   0  -3  13   -6.20    9.20
   0   3  13   -7.80   10.50
   0   3 -13   -0.30    9.30
   0  -3  13   -8.30   10.90
   0  -3  13   -2.10   11.30
   0  -3 -13    4.60    8.30
  -1   3  13   71.79   17.60
   1  -3  13  114.39   19.70
   1   3 -13  113.19    9.60
   1   3 -13  110.69   19.90
   1  -3  13  106.79   16.10
  -1   3  13  122.79   19.40
   1   3 -13  103.89   17.80
   1  -3  13  115.59   20.00
  -1   3  13  102.39   10.10
  -1   3  13  122.09   18.50
  -1  -3 -13  145.09   22.90
   1   3 -13   84.89   16.30
  -1  -3 -13  103.49   15.00
   1   3 -13  120.59   18.40
  -1  -3 -13  109.79   17.90
  -1   3  13  119.99   15.30
  -1  -3 -13   90.19   18.40
   1   3 -13  104.69   19.80
  -1  -3 -13  101.49   14.60
  -1   3  13  130.19   22.40
   1  -3  13  136.59   21.50
  -1   3 -13  115.29   14.20
  -1   3 -13  149.69   23.50
  -1  -3  13  139.79   22.20
  -1  -3  13  139.59   18.70
   1  -3 -13   86.29   17.10
   1  -3 -13  103.49   16.30
   1   3  13  111.09   19.30
  -1  -3  13  106.59   17.50
  -1  -3  13  118.89   16.90
  -1   3 -13  132.19   21.50
   1  -3 -13   87.49   18.30
   1   3  13  125.79   16.70
  -1   3 -13  130.69   18.50
  -1   3 -13  107.99   20.90
  -1  -3  13   70.49   21.10
  -1   3 -13  103.39   17.10
   1   3  13  114.89   18.80
  -1  -3  13  133.69   18.40
  -2  -3 -13  670.03   34.00
   2  -3  13  672.23   36.80
   2   3 -13  638.64   19.30
   2  -3  13  675.43   41.40
  -2  -3 -13  634.64   33.90
   2  -3  13  650.83   43.10
   2   3 -13  622.84   34.40
   2   3 -13  719.13   39.00
  -2  -3 -13  653.43   42.40
  -2  -3 -13  699.33   35.50
  -2   3  13  660.63   44.30
  -2  -3 -13  644.54   42.10
  -2   3  13  639.44   31.10
   2   3 -13  660.43   34.70
  -2  -3 -13  665.03   37.40
  -2   3  13  642.84   27.90
  -2   3  13  673.43   38.50
  -2   3  13  642.74   45.70
   2   3 -13  619.54   36.20
  -2  -3  13  678.33   30.00
  -2  -3  13  642.84   28.40
  -2  -3  13  635.84   39.20
   2  -3 -13  717.43   45.80
  -2  -3  13  667.63   30.80
  -2  -3  13  639.74   46.00
   2  -3 -13  637.64   33.60
   2  -3 -13  685.13   37.90
  -2   3 -13  649.24   42.80
  -2  -3  13  636.24   44.30
  -2   3 -13  639.54   39.70
   2   3  13  674.53   44.30
  -2   3 -13  659.13   39.60
   2   3  13  629.64   42.40
  -2   3 -13  667.23   34.60
  -2   3 -13  662.23   42.20
  -3   3  13    6.40   15.20
   3   3 -13   25.90   14.50
  -3   3  13    1.40   23.50
  -3  -3 -13  -28.10   17.70
  -3  -3 -13   23.90   12.20
  -3  -3 -13   21.00   22.60
   3  -3  13   18.80   17.90
  -3   3  13   32.30   25.10
   3   3 -13   19.90   16.70
   3   3 -13   45.20   24.70
   3  -3  13   16.90   21.70
  -3  -3 -13   16.80   11.10
  -3   3  13    9.10   16.20
   3   3  13    6.30   21.30
  -3   3 -13   -9.90   23.10
  -3  -3  13   28.10   24.30
   3  -3 -13   18.50   13.00
  -3  -3  13    7.00   24.60
  -3   3 -13   10.00   21.80
   3  -3 -13   19.40   20.50
  -3   3 -13   31.80   11.40
   3  -3 -13   15.10   14.00
  -4  -3 -13  268.07   40.00
  -4   3  13  310.97   55.69
   4   3 -13  267.67   40.80
   4  -3  13  308.17   52.49
  -4   3  13  319.67   50.29
   4  -3  13  265.57   39.40
  -4  -3 -13  246.28   46.00
   4   3 -13  223.58   34.60
   4   3  13  397.76   62.59
  -4  -3  13  265.97   44.50
   4  -3 -13  318.67   28.30
  -4   3 -13  353.56   61.59
  -4   3 -13  394.56   56.49
   4  -3 -13  248.58   41.90
   4  -3 -13  213.68   31.80
   4   3  13  248.48   41.10
   0   4  13  211.78   21.30
   0   4 -13  250.37   27.90
   0   4 -13  260.37   24.90
   0  -4  13  255.17   26.50
   0   4 -13  241.08   25.20
   0   4 -13  249.38   29.80
   0  -4 -13  220.88   31.20
   0   4  13  183.38   29.40
   0  -4 -13  201.48   20.60
   0  -4 -13  254.87   23.30
   0  -4 -13  204.08   21.30
   0  -4  13  242.38   37.60
   0  -4  13  184.18   24.80
   0   4 -13  234.18   18.60
   0   4  13  224.58   24.10
   0   4  13  227.68   22.80
   0   4 -13  208.38   24.60
  -1   4  13  179.68   22.50
   1   4 -13  185.48   25.50
   1   4 -13  223.78   36.60
  -1   4  13  144.59   22.30
   1   4 -13  161.38   27.90
   1  -4  13  144.89   22.40
  -1  -4 -13  188.18   25.50
  -1  -4 -13  170.18   22.10
   1   4 -13  128.09   21.30
  -1  -4 -13  160.48   27.60
  -1  -4 -13  128.59   19.50
   1  -4  13  168.98   26.50
   1   4 -13  147.79   22.40
  -1   4  13  137.89   13.40
  -1  -4 -13  156.68   22.10
  -1   4  13  157.58   26.00
   1  -4  13  153.58   25.80
   1   4  13  152.98   23.40
   1  -4 -13  155.08   25.40
   1  -4 -13  147.09   13.40
  -1  -4  13  197.48   23.80
  -1   4 -13  159.88   24.30
  -1   4 -13  143.09   23.00
  -1   4 -13  182.28   28.90
   1  -4 -13  139.79   21.90
  -1  -4  13  185.98   28.40
  -1   4 -13  178.28   20.40
  -1   4 -13  154.88   25.70
   1  -4 -13  126.89   23.40
  -1  -4  13  177.58   22.70
   1   4  13  215.88   33.30
   1   4  13   99.29   26.60
   2  -4  13  229.08   29.40
   2  -4  13  190.18   32.00
  -2  -4 -13  224.38   24.70
   2  -4  13  261.07   34.30
  -2  -4 -13  207.18   23.70
  -2  -4 -13  212.58   31.50
   2   4 -13  164.08   28.50
  -2   4  13  252.97   41.50
  -2  -4 -13  226.78   32.30
  -2   4  13  257.07   27.30
  -2   4  13  256.27   36.30
   2   4 -13  203.48   31.40
   2   4 -13  202.18   31.10
  -2  -4 -13  223.68   16.50
  -2   4  13  215.18   18.20
  -2  -4  13  244.88   22.40
  -2   4 -13  252.37   34.30
   2  -4 -13  258.27   31.30
  -2   4 -13  195.88   26.40
  -2  -4  13  255.47   28.90
  -2   4 -13  283.37   35.00
   2  -4 -13  215.08   12.80
   2  -4 -13  221.78   26.50
  -2  -4  13  307.77   38.70
  -2  -4  13  242.08   38.60
   2   4  13  253.77   37.00
   2  -4 -13  204.68   15.80
  -2  -4  13  201.98   24.00
  -2   4 -13  195.28   33.00
   2   4  13  184.78   28.90
  -2  -4  13  192.48   31.10
   3  -4  13  424.06   45.70
  -3   4  13  505.15   54.59
  -3   4  13  457.25   39.60
   3   4 -13  362.96   37.70
  -3  -4 -13  441.16   32.20
  -3   4  13  441.06   55.19
  -3  -4 -13  498.25   32.40
   3  -4  13  390.66   39.40
  -3  -4 -13  383.06   51.59
   3   4 -13  466.55   38.40
   3  -4 -13  444.06   38.20
  -3  -4  13  557.24   57.39
  -3  -4  13  464.25   50.59
   3  -4 -13  449.66   54.09
   3   4  13  323.67   51.29
  -3   4 -13  552.44   52.69
  -3   4 -13  507.05   56.39
   3  -4 -13  436.96   36.70
  -4  -4 -13  189.98   40.60
   4  -4  13  262.97   47.60
   4  -4  13  143.89   31.20
  -4  -4 -13  202.88   44.20
  -4   4  13  132.09   50.59
   4  -4  13  269.47   43.00
  -4   4  13  251.47   47.90
   4   4 -13  159.08   32.70
   4   4 -13  194.28   31.90
  -4  -4  13  111.09   46.30
   4  -4 -13  228.08   37.70
   4  -4 -13  182.48   45.80
  -4  -4  13  202.88   51.99
  -4   4 -13  251.57   54.49
  -4   4 -13  103.79   46.10
   4   4  13  178.48   45.00
   0  -5  13    8.20   17.50
   0  -5  13   55.79   19.70
   0   5 -13    8.60   17.20
   0   5 -13   23.10   21.50
   0  -5  13   46.20   17.80
   0   5  13   19.40   15.70
   0   5 -13   27.70   19.80
   0  -5 -13    8.20   23.30
   0   5  13   39.20   18.00
   0   5  13    8.50   13.10
   0  -5 -13   41.40   15.90
   0  -5 -13   45.60   16.60
   0   5 -13   28.80   15.60
   0   5  13    5.60   13.10
   0   5 -13   12.70   19.00
   1   5 -13  110.59   26.10
  -1  -5 -13  104.09   20.90
   1  -5  13   90.19   21.80
   1   5 -13  196.78   32.00
  -1  -5 -13  144.09   24.40
  -1  -5 -13  112.49   21.40
   1  -5  13  121.89   20.80
   1  -5  13   71.49   28.10
  -1   5  13  143.99   14.80
  -1   5  13   96.89   30.80
  -1  -5 -13  166.28   31.50
   1   5 -13   78.99   21.20
  -1   5  13  100.69   15.80
  -1   5  13  100.09   23.60
  -1  -5 -13  142.69   23.60
  -1  -5  13  148.19   25.30
  -1  -5  13  122.99   26.40
  -1   5 -13  143.19   21.40
  -1   5 -13  128.39   20.20
  -1   5 -13   85.19   24.10
   1  -5 -13  114.99   28.70
  -1   5 -13   76.99   23.10
   1  -5 -13  126.69   24.80
  -1  -5  13  125.29   25.00
  -1  -5  13  162.38   30.30
  -1   5 -13  119.79   26.40
   1  -5 -13  139.89   19.10
   1   5  13  134.49   35.40
  -1   5 -13  106.19   27.90
   1   5  13   88.79   23.90
  -2  -5 -13  106.39   21.10
   2   5 -13   58.59   24.30
  -2   5  13   92.49   29.30
   2  -5  13   59.39   23.70
  -2  -5 -13   70.79   20.30
   2  -5  13   79.69   24.50
   2  -5  13   97.59   17.10
  -2   5  13  116.19   28.50
  -2  -5 -13  126.79   29.40
   2   5 -13   49.80   21.30
  -2  -5  13   97.89   31.40
  -2   5 -13   61.59   24.80
   2  -5 -13   71.79   20.50
  -2  -5  13   80.09   18.40
  -2  -5  13  102.49   33.10
  -2   5 -13  119.59   28.70
   2   5  13   29.50   30.90
  -2   5 -13   92.59   11.20
  -2   5 -13   70.99   23.20
   3  -5  13  129.89   29.10
  -3   5  13  125.69   27.20
   3  -5  13   69.39   30.70
   3   5 -13  134.09   27.60
  -3   5  13  148.39   43.10
   3  -5  13  111.99   34.50
   3   5 -13  103.89   27.10
  -3  -5 -13  127.19   42.10
  -3   5  13  114.49   39.50
  -3  -5 -13   79.19   30.20
  -3   5 -13  143.09   36.30
  -3  -5  13   78.39   35.20
   3  -5 -13  115.39   27.40
  -3  -5  13  172.88   42.40
  -3   5 -13  161.88   38.00
   3  -5 -13  108.69   26.10
   3   5  13  147.49   40.00
   0  -6  13   68.19   34.20
   0   6 -13   85.09   27.70
   0   6  13   37.50   21.30
   0  -6 -13   94.09   29.80
   0  -6  13   40.30   21.90
   0  -6 -13   72.09   23.80
   0   6 -13   60.79   26.20
   0   6  13   63.59   21.60
   0  -6 -13   81.89   22.10
   0  -6  13   77.59   25.10
   0   6  13   28.60   22.30
   0  -6  13   58.49   24.40
   1  -6  13  -35.80   30.80
   1   6 -13   34.10   24.40
   1  -6  13   52.49   26.90
  -1  -6 -13   58.59   28.30
  -1   6  13   28.10   20.00
  -1  -6 -13  -14.70   18.70
  -1  -6 -13   42.60   35.00
   1  -6  13   -6.10   20.80
  -1   6  13   74.79   28.00
   1  -6  13   63.79   21.40
   1   6 -13   23.20   24.40
  -1  -6 -13   13.50   22.60
   1  -6 -13  -12.20   26.70
  -1   6 -13   27.30   22.40
  -1  -6  13  -15.10   34.10
  -1  -6  13   -2.60   24.90
  -1   6 -13   41.90   24.10
   1  -6 -13   13.00   21.50
  -1  -6  13   71.39   28.50
  -1   6 -13   55.69   29.00
  -1  -6  13   72.09   23.00
  -1   6 -13   40.70   25.20
   1   6  13   -9.70   26.70
  -1  -6  13   37.70   23.50
  -2  -6 -13  145.49   27.10
   2  -6  13   68.89   27.80
  -2  -6 -13   79.09   23.30
   2   6 -13  110.29   30.10
  -2  -6 -13  116.59   34.30
  -2   6  13  135.39   40.70
   2  -6  13   78.19   29.40
  -2   6  13  100.89   25.70
  -2   6  13   72.89   35.40
   2  -6  13  120.79   39.30
   2   6 -13   68.79   27.60
   2  -6 -13   43.40   31.30
  -2  -6  13  152.78   36.20
  -2  -6  13  148.19   26.10
  -2   6 -13   65.29   30.20
   2  -6 -13   81.59   27.90
  -2   6 -13   72.69   30.70
  -2  -6  13  158.18   35.80
   2   6  13   84.79   39.60
   0   7 -13  -13.00   31.90
   0  -7 -13   52.49   42.50
   0  -7  13   35.70   32.80
   0  -7  13   25.20   31.30
   0   7  13   48.40   27.80
   0  -7  13   36.40   46.10
   0   7 -13   14.30   31.60
   0  -7 -13   44.90   32.90
   0   7 -13   12.60   29.60
  -1   7  13   70.69   26.50
  -1  -7 -13  112.79   40.40
   1  -7  13   42.40   32.80
  -1  -7  13   65.09   30.80
  -1   7 -13   48.60   32.50
  -1  -7  13   43.10   33.20
   0   0  14  100.19   12.90
   0   0  14  122.59   13.60
   0   0 -14  107.99   14.90
   0   0 -14   91.39   12.10
   0   0  14   99.99   16.00
   0   0 -14  107.79   14.20
   0   0  14  115.29   13.80
   0   0  14   99.89   13.00
   0   0  14  103.89   15.00
   0   0  14  112.39   14.00
   0   0 -14  104.29   14.10
   0   0 -14   97.19   16.10
   0   0 -14  104.79   12.00
   0   0  14   97.79   14.00
   1   0 -14  186.88   32.30
   1   0 -14  229.58   16.60
   1   0 -14  193.08   18.40
  -1   0  14  215.38   18.50
  -1   0  14  201.28   16.20
   1   0  14  239.78   21.30
   1   0 -14  229.88   16.30
  -1   0  14  197.08   21.10
   1   0  14  223.58   20.20
  -1   0  14  200.08   21.10
   1   0  14  214.48   16.30
   1   0  14  204.88   21.70
   1   0  14  226.78   18.70
   1   0 -14  210.98   20.60
   1   0  14  214.88   19.30
   1   0  14  198.48   16.20
  -1   0  14  217.18   15.80
  -1   0  14  235.48   23.00
   1   0  14  190.18   18.80
  -1   0  14  208.08   12.70
  -1   0 -14  213.88   17.50
  -1   0 -14  220.18   15.20
  -1   0 -14  226.28   22.10
   1   0 -14  206.78   16.00
  -1   0 -14  206.58   17.10
  -1   0  14  215.98   21.00
  -1   0  14  203.38   10.40
  -1   0  14  238.68   16.30
   1   0 -14  192.58   19.00
  -1   0 -14  248.88   20.70
   2   0  14  147.79   18.90
   2   0 -14  177.78   16.20
  -2   0  14  159.48   27.00
   2   0  14  152.68   15.50
   2   0 -14  155.98   17.60
  -2   0  14  172.28   21.80
  -2   0 -14  138.29   20.90
   2   0  14  170.98   21.60
   2   0  14  185.18   21.00
  -2   0 -14  153.28   24.00
   2   0  14  164.18   22.90
  -2   0  14  147.69   17.40
  -2   0  14  150.28    8.30
   2   0 -14  133.09   20.60
  -2   0 -14  146.79   16.80
   2   0  14  179.58   13.90
   2   0 -14  133.79   22.30
   2   0 -14  153.18   14.90
   2   0  14  128.59   21.30
   2   0 -14  167.78   15.70
   2   0 -14  107.99   19.50
  -2   0  14  171.88   22.80
  -2   0 -14  132.49   15.00
  -2   0  14  150.08   19.90
   2   0  14  125.39   19.10
  -2   0  14  203.18   27.90
  -2   0 -14  169.58   18.50
  -2   0 -14  159.38   21.50
   3   0  14  273.17   15.50
   3   0 -14  290.97   24.90
   3   0  14  201.58   27.10
  -3   0 -14  286.57   12.30
  -3   0 -14  273.77   12.70
  -3   0 -14  312.57   40.20
   3   0  14  277.27   31.00
   3   0 -14  283.97   20.00
   3   0  14  230.38   33.40
   3   0  14  314.47   21.40
  -3   0  14  273.87   28.60
   3   0 -14  271.97   19.70
  -3   0  14  279.27   37.30
   3   0 -14  308.47   33.10
   3   0 -14  345.47   33.40
   3   0  14  274.27   27.80
   3   0 -14  287.67   21.50
  -3   0 -14  204.38   29.90
  -3   0 -14  339.97   29.10
  -3   0  14  299.37   54.89
   3   0  14  271.17   35.10
   3   0  14  276.57   26.90
  -4   0  14  181.78   36.10
  -4   0 -14   94.29   26.00
   4   0  14  152.68   35.10
   4   0 -14  126.29   25.50
  -4   0  14  158.38   36.80
   4   0  14  169.68   30.80
   4   0 -14  180.28   21.50
   4   0  14  129.99   21.60
   4   0 -14  191.58   32.30
   4   0 -14  122.99   17.00
  -4   0  14  122.49   27.10
   4   0 -14  105.69   27.30
  -4   0 -14  174.28   35.80
   0   1 -14  118.89   14.90
   0  -1  14  116.89   14.60
   0  -1 -14  105.29   16.20
   0  -1  14  113.79   18.00
   0  -1  14  130.09   14.60
   0   1  14  100.59   13.00
   0   1  14  113.09   15.40
   0   1 -14  103.29   15.30
   0   1  14   92.49   13.30
   0  -1 -14  118.99   13.50
   0  -1  14   96.79   13.90
   0   1  14  116.29   11.80
   0  -1 -14   93.69   14.30
   0   1 -14  109.89   14.20
   0  -1  14   95.99   14.70
   0  -1  14  125.69   13.60
   0   1 -14  102.69   13.70
   0  -1 -14   87.49   13.80
   0  -1 -14  102.29   15.20
   0   1  14   93.89   15.10
   0   1  14  100.79   14.10
   0  -1  14  110.09   16.10
   0  -1  14   98.29   14.20
   0   1 -14   98.19   15.60
   0   1 -14  106.19   17.80
   0  -1 -14  100.09   12.90
   0   1  14   87.59   12.90
   1  -1  14  548.55   25.90
   1  -1  14  565.64   32.10
   1  -1  14  538.75   27.90
   1   1 -14  552.84   27.40
   1   1 -14  526.45   25.60
   1  -1  14  593.64   29.40
   1  -1  14  574.54   33.00
   1   1 -14  541.05   26.20
  -1  -1 -14  513.75   26.80
  -1  -1 -14  555.14   23.10
   1   1 -14  572.94   27.00
   1  -1  14  481.25   24.20
  -1   1  14  555.04   30.40
  -1   1  14  584.64   20.20
   1   1 -14  564.34   30.00
  -1  -1 -14  564.74   27.10
  -1   1  14  576.84   25.10
  -1   1  14  531.85   30.90
   1  -1  14  568.94   27.10
  -1  -1 -14  578.64   32.60
   1   1 -14  535.35   29.70
   1  -1  14  556.14   28.50
  -1   1  14  557.74   22.40
   1   1 -14  556.54   30.90
  -1  -1 -14  557.74   32.40
  -1   1  14  572.24   32.20
   1   1 -14  556.54   29.70
   1  -1 -14  559.14   23.50
  -1   1 -14  573.54   26.20
   1   1  14  585.54   28.40
   1   1  14  561.14   29.30
   1   1  14  564.44   29.50
   1   1  14  559.04   28.50
  -1  -1  14  576.54   31.20
   1   1  14  507.75   26.80
  -1  -1  14  549.74   33.20
  -1   1 -14  530.75   29.10
   1  -1 -14  549.25   29.50
  -1  -1  14  538.35   32.40
  -1   1 -14  518.35   26.60
  -1  -1  14  518.15   22.00
  -1  -1  14  558.64   24.90
  -1  -1  14  545.55   31.90
  -1   1 -14  565.84   27.80
  -1   1 -14  565.44   24.60
   1  -1 -14  553.04   26.40
  -1   1 -14  510.35   36.40
   1  -1 -14  559.04   25.50
   1   1  14  560.94   32.60
   1  -1 -14  557.54   35.00
  -1  -1  14  522.25   28.00
  -1  -1  14  538.65   26.90
  -1   1 -14  534.05   31.90
   1   1  14  538.45   32.40
  -1  -1  14  545.95   25.00
   1  -1 -14  594.44   29.90
   1  -1 -14  544.85   31.00
  -2   1  14  385.26   27.80
   2  -1  14  446.96   40.10
   2  -1  14  420.76   27.30
   2  -1  14  335.07   27.40
  -2  -1 -14  413.46   29.80
   2  -1  14  406.06   22.30
  -2  -1 -14  392.36   27.20
  -2   1  14  415.36   34.90
   2  -1  14  421.66   20.30
  -2  -1 -14  442.36   28.50
   2  -1  14  374.06   30.00
  -2   1  14  353.26   18.00
   2   1 -14  415.36   25.10
   2   1 -14  455.55   33.30
   2   1 -14  417.56   23.50
  -2  -1 -14  422.86   24.20
   2   1 -14  406.46   18.10
   2  -1  14  436.26   32.40
   2  -1  14  430.36   26.60
  -2   1  14  414.66   31.10
   2   1 -14  384.86   22.70
   2   1 -14  398.86   29.50
  -2  -1 -14  407.76   23.10
  -2   1  14  402.36   15.40
   2   1 -14  403.86   26.60
   2  -1 -14  403.06   21.20
   2   1  14  400.26   29.40
  -2  -1  14  432.66   34.40
   2  -1 -14  397.86   25.40
   2   1  14  397.96   24.50
  -2  -1  14  402.76   35.40
  -2  -1  14  398.16   31.90
  -2  -1  14  406.36   16.50
   2  -1 -14  405.46   22.50
   2  -1 -14  448.46   33.90
  -2   1 -14  412.26   30.20
   2   1  14  404.66   26.10
   2   1  14  427.16   26.90
  -2   1 -14  399.86   23.50
   2  -1 -14  429.36   28.80
  -2   1 -14  370.66   33.00
   2   1  14  412.76   32.50
  -2   1 -14  411.36   30.30
  -2   1 -14  366.36   22.70
   2   1  14  385.96   30.10
  -2  -1  14  383.76   26.20
   2  -1 -14  377.46   22.40
  -2   1 -14  415.06   28.80
   2   1  14  447.36   37.90
  -2  -1  14  404.66   15.60
  -3  -1 -14  237.48   23.80
   3   1 -14  250.87   14.30
   3  -1  14  291.17   33.60
   3  -1  14  244.28   21.80
   3  -1  14  307.87   26.90
   3  -1  14  257.07   15.40
   3   1 -14  342.07   36.50
   3   1 -14  246.38   22.00
   3   1 -14  191.88   27.60
   3   1 -14  261.77   21.90
   3   1 -14  243.68   28.70
  -3  -1 -14  244.18   31.30
  -3   1  14  201.08   42.90
   3  -1  14  192.68   30.30
  -3  -1 -14  260.57   14.50
   3   1 -14  196.58   30.10
  -3   1  14  265.47   35.90
   3   1 -14  260.67   22.30
   3  -1  14  246.68   31.90
   3  -1  14  301.37   30.70
  -3  -1 -14  258.37   15.80
  -3  -1 -14  309.77   31.80
   3  -1 -14  224.78   32.90
  -3  -1  14  222.68   31.10
   3   1  14  246.68   30.00
  -3   1 -14  195.88   30.10
   3  -1 -14  230.28   19.90
  -3   1 -14  253.87   31.80
  -3   1 -14  297.37   33.40
   3  -1 -14  284.07   21.60
   3   1  14  274.77   57.89
  -3  -1  14  281.87   38.90
   3   1  14  218.88   31.20
  -3   1 -14  269.57   13.70
  -3  -1  14  318.67   36.90
   3   1  14  269.07   29.40
   3   1  14  312.97   37.80
   3  -1 -14  284.37   29.90
   3  -1 -14  219.98   22.60
   3  -1 -14  247.88   19.20
   3  -1 -14  273.07   20.50
   4  -1  14   -8.50   24.20
  -4  -1 -14   32.10   30.30
  -4   1  14  -10.80   30.50
  -4   1  14   17.60   24.80
   4   1 -14   -5.40   23.20
   4   1 -14   31.80   13.80
   4  -1  14   21.80   22.70
  -4   1 -14  -13.10   26.00
   4   1  14  -42.30   23.40
   4   1  14  -23.00   26.80
   4  -1 -14  -10.00   23.60
  -4  -1  14   53.89   32.80
  -4  -1  14   -0.20   27.10
  -4   1 -14    1.20   41.60
   4  -1 -14   14.90   12.20
   4  -1 -14  -35.10   20.00
  -4  -1  14    7.40   26.80
   4  -1 -14   30.10   13.30
   0   2 -14  869.41   31.70
   0  -2 -14  905.71   36.50
   0   2 -14  866.11   37.60
   0  -2  14  930.31   40.50
   0   2 -14  867.61   38.00
   0   2 -14  900.21   41.50
   0   2  14  838.62   33.80
   0  -2 -14  850.31   35.10
   0  -2  14  908.61   37.40
   0   2  14  863.81   38.50
   0  -2 -14  895.71   38.20
   0  -2 -14  850.71   40.70
   0   2 -14  938.01   38.60
   0   2 -14  902.51   32.60
   0   2 -14  898.01   39.80
   0  -2 -14  858.51   36.60
   0  -2  14  918.81   37.40
   0  -2 -14  936.81   37.80
   0   2  14  850.81   26.90
   0   2 -14  888.91   38.00
   0   2  14  917.91   43.70
   0  -2  14  878.01   36.20
   0  -2  14  824.42   35.80
   0  -2  14  880.41   37.40
   0  -2  14  915.91   42.70
   0   2  14  831.72   35.70
  -1  -2 -14 2364.36   78.89
   1  -2  14 2466.55   77.09
   1  -2  14 2469.95   75.69
  -1   2  14 2455.35   79.69
   1  -2  14 2376.06   79.49
  -1  -2 -14 2417.06   68.29
  -1   2  14 2264.47   77.29
   1   2 -14 2385.06   77.59
  -1   2  14 2361.06   65.09
   1   2 -14 2330.67   76.79
   1  -2  14 2396.76   74.29
   1   2 -14 2495.55   79.29
   1  -2  14 2404.86   62.59
  -1   2  14 2382.16   71.09
   1   2 -14 2395.66   75.39
   1   2 -14 2407.46   72.69
  -1   2  14 2336.47   77.59
  -1  -2 -14 2454.75   73.49
  -1   2  14 2404.66   63.69
  -1  -2 -14 2309.37   73.99
  -1  -2 -14 2406.06   72.59
   1   2 -14 2439.66   73.69
  -1  -2 -14 2481.75   65.29
  -1  -2 -14 2429.76   79.99
   1  -2  14 2525.75   81.19
   1   2 -14 2429.26   80.69
  -1   2 -14 2337.97   75.99
   1   2  14 2436.26   73.29
   1  -2 -14 2380.16   65.89
   1  -2 -14 2405.86   78.19
  -1  -2  14 2319.27   69.29
  -1  -2  14 2534.55   72.99
  -1   2 -14 2392.56   68.79
   1  -2 -14 2518.85   73.69
   1   2  14 2352.76   80.09
   1  -2 -14 2390.06   81.69
   1  -2 -14 2450.05   74.79
  -1   2 -14 2343.77   79.39
  -1  -2  14 2332.77   70.49
   1   2  14 2470.55   74.89
  -1  -2  14 2373.96   78.29
  -1  -2  14 2469.35   78.59
  -1  -2  14 2436.66   80.89
   1   2  14 2416.26   76.99
  -1   2 -14 2350.06   81.99
  -1   2 -14 2350.66   73.59
   1  -2 -14 2403.06   81.99
  -1  -2  14 2335.57   80.19
  -1   2 -14 2373.26   75.09
   1   2  14 2376.66   76.39
   1  -2 -14 2381.46   75.99
  -1   2 -14 2347.86   74.69
   2   2 -14  277.67   24.10
   2  -2  14  261.47   30.00
  -2  -2 -14  270.87   28.00
  -2  -2 -14  287.67   24.60
  -2  -2 -14  375.46   26.80
   2   2 -14  298.37   31.80
  -2   2  14  302.57   24.30
   2   2 -14  295.37   20.20
   2   2 -14  290.87   22.40
   2   2 -14  301.47   26.80
  -2   2  14  298.67   27.40
  -2   2  14  318.17   34.30
   2   2 -14  300.67   20.40
  -2  -2 -14  306.87   22.00
  -2  -2 -14  270.37   22.00
   2  -2  14  385.26   32.10
   2   2 -14  330.97   33.10
   2  -2  14  295.27   26.20
   2  -2  14  297.87   27.30
   2  -2  14  343.27   25.70
   2  -2  14  275.77   25.40
  -2  -2 -14  280.17   27.90
   2   2  14  318.17   35.90
   2   2  14  307.07   30.40
   2  -2 -14  269.67   21.40
  -2  -2  14  329.17   18.10
  -2  -2  14  280.87   27.40
  -2   2 -14  290.27   28.30
   2   2  14  321.47   26.60
   2  -2 -14  316.57   22.60
   2  -2 -14  327.77   25.40
  -2   2 -14  299.57   28.20
  -2   2 -14  334.57   30.30
  -2  -2  14  329.57   31.10
   2  -2 -14  270.67   29.50
  -2  -2  14  247.38   33.10
  -2   2 -14  283.37   25.30
  -2   2 -14  319.27   23.50
  -2  -2  14  317.77   17.30
   2  -2 -14  278.27   24.90
  -2  -2  14  290.57   16.40
   2   2  14  317.07   28.00
   3  -2  14  291.47   29.90
   3   2 -14  341.17   27.20
  -3  -2 -14  327.87   19.60
  -3   2  14  372.96   34.20
   3   2 -14  417.86   29.00
   3  -2  14  307.47   33.10
  -3   2  14  359.66   42.80
   3  -2  14  342.67   36.70
  -3  -2 -14  324.57   38.30
  -3  -2 -14  413.16   23.30
  -3  -2 -14  342.17   36.50
   3   2 -14  322.77   26.40
   3   2 -14  336.37   34.10
   3   2 -14  346.57   44.60
   3  -2  14  368.86   38.80
  -3   2  14  329.57   33.90
   3   2 -14  277.47   23.10
   3  -2 -14  375.96   25.70
  -3  -2  14  366.06   37.80
   3   2  14  237.38   36.40
   3  -2 -14  396.56   27.80
   3  -2 -14  390.96   31.40
   3  -2 -14  347.17   25.30
  -3   2 -14  313.57   37.60
   3   2  14  344.77   34.60
  -3   2 -14  363.16   36.00
   3  -2 -14  429.36   41.50
   3   2  14  325.07   42.90
  -3  -2  14  284.47   43.10
   3  -2 -14  346.47   23.90
  -3   2 -14  416.96   39.60
  -3  -2  14  400.36   42.90
   4   2 -14   56.79   17.50
   4  -2  14   54.69   27.40
  -4   2  14   22.40   35.70
  -4   2  14   -2.10   26.90
   4  -2  14   48.60   23.40
  -4  -2 -14   22.80   28.70
   4   2 -14   -5.90   21.70
   4  -2 -14   32.30   27.10
   4   2  14   41.20   31.80
   4  -2 -14   34.60   14.50
   4   2  14   27.20   32.20
  -4  -2  14   62.69   36.20
   4  -2 -14   61.89   14.00
  -4   2 -14   54.29   34.20
   4  -2 -14   37.60   13.90
   4  -2 -14   38.20   23.20
   4  -2 -14   48.50   17.20
  -4  -2  14   28.70   31.40
  -4  -2  14   52.79   29.90
   0  -3 -14 1166.08   52.19
   0  -3  14 1109.99   52.39
   0   3  14 1037.30   46.10
   0  -3  14 1155.38   45.00
   0   3 -14 1093.09   38.60
   0   3  14 1147.79   52.89
   0  -3 -14 1125.39   48.40
   0  -3 -14 1088.09   45.70
   0  -3  14 1149.48   47.10
   0   3 -14 1096.69   47.10
   0  -3  14 1032.40   45.80
   0   3  14 1057.59   42.60
   0   3  14 1100.99   42.00
   0   3 -14 1140.59   51.99
   0   3 -14 1118.09   51.39
   0  -3 -14 1063.99   42.80
   0   3 -14 1143.99   49.00
   0  -3 -14 1106.19   36.30
   0   3 -14  987.80   48.00
   0   3 -14 1069.59   46.70
   0  -3  14 1146.39   52.99
   0  -3  14 1124.89   43.90
   0   3 -14 1127.29   40.50
   0  -3 -14 1073.89   44.10
   0   3  14 1064.49   45.30
  -1   3  14  603.54   36.60
  -1  -3 -14  624.24   29.80
  -1  -3 -14  632.24   31.80
   1   3 -14  606.34   38.30
   1   3 -14  628.24   39.50
  -1   3  14  593.74   22.30
   1   3 -14  646.04   36.20
  -1  -3 -14  620.04   33.50
   1  -3  14  641.44   34.60
   1   3 -14  648.04   38.70
   1   3 -14  578.24   32.50
   1   3 -14  621.24   34.60
   1   3 -14  639.04   21.90
  -1  -3 -14  609.94   32.80
  -1   3  14  576.44   35.40
  -1   3  14  603.34   34.60
   1  -3  14  671.03   41.10
   1  -3  14  633.44   41.60
  -1   3  14  572.74   31.60
  -1   3  14  635.34   27.70
  -1  -3 -14  626.74   38.90
   1  -3  14  574.34   34.10
   1   3  14  582.84   31.20
   1  -3 -14  591.84   39.90
  -1  -3  14  586.74   33.00
  -1  -3  14  622.84   37.30
  -1   3 -14  640.04   38.70
  -1  -3  14  593.04   32.70
  -1   3 -14  631.44   34.10
   1   3  14  588.54   42.00
  -1   3 -14  605.24   34.50
  -1  -3  14  622.04   38.50
  -1  -3  14  623.94   31.60
  -1   3 -14  597.24   28.40
   1   3  14  587.74   35.70
  -1   3 -14  613.14   34.60
   1  -3 -14  618.44   32.00
   1  -3 -14  535.25   38.50
   1  -3 -14  620.34   38.10
  -2   3  14 1779.82   62.99
  -2  -3 -14 1684.63   66.49
   2   3 -14 1779.02   61.79
  -2   3  14 1876.81   70.49
   2   3 -14 1782.12   65.59
   2  -3  14 1933.11   74.09
  -2   3  14 1805.22   58.69
   2  -3  14 1792.52   64.59
   2   3 -14 1872.81   69.29
  -2  -3 -14 1845.92   63.69
  -2   3  14 1782.22   75.39
  -2  -3 -14 1858.61   71.79
  -2   3  14 1817.52   76.39
   2   3 -14 1786.52   47.30
  -2  -3 -14 1869.21   64.29
   2  -3  14 1772.62   70.99
   2   3 -14 1866.11   69.19
  -2  -3 -14 1775.02   72.59
  -2  -3 -14 1843.02   62.69
  -2   3 -14 1883.01   75.49
   2  -3 -14 1734.23   66.79
  -2  -3  14 1753.62   55.99
  -2   3 -14 1764.22   64.29
  -2  -3  14 1877.41   58.59
  -2   3 -14 1856.61   72.39
  -2  -3  14 1785.92   69.29
  -2  -3  14 1813.02   75.09
  -2  -3  14 1878.41   58.39
  -2   3 -14 1815.92   69.09
   2  -3 -14 1839.32   77.99
  -2   3 -14 1780.92   69.09
  -2  -3  14 1861.71   77.49
   2   3  14 1787.22   73.69
   2   3  14 1893.51   75.99
   2  -3 -14 1882.91   63.59
  -3  -3 -14  449.26   26.20
   3   3 -14  459.75   33.80
  -3  -3 -14  422.86   26.20
   3  -3  14  469.85   44.40
   3   3 -14  458.95   38.80
   3   3 -14  427.76   33.40
  -3   3  14  490.25   35.30
  -3  -3 -14  443.46   45.30
  -3   3  14  434.26   53.29
  -3   3  14  441.56   38.00
  -3   3  14  547.25   49.20
   3  -3 -14  441.86   32.80
  -3  -3  14  520.85   44.80
  -3   3 -14  510.55   46.20
   3  -3 -14  448.26   33.70
  -3  -3  14  411.96   48.50
   3   3  14  526.65   46.40
   3  -3 -14  500.15   47.80
  -3   3 -14  431.76   45.60
  -3   3 -14  426.46   27.20
  -4  -3 -14  278.87   48.80
   4  -3  14  206.08   32.40
  -4   3  14  208.78   45.00
  -4  -3 -14  219.18   38.30
   4  -3  14  256.27   44.20
   4   3 -14  245.28   42.50
   4   3  14  313.37   58.79
   4  -3 -14  257.77   41.50
   4   3  14  190.18   45.40
  -4  -3  14  166.78   42.00
   4  -3 -14  247.58   29.60
  -4  -3  14  263.17   44.60
  -4   3 -14  290.17   50.89
   4  -3 -14  250.17   31.60
  -4   3 -14  340.97   53.39
   0   4 -14    2.00   13.40
   0   4 -14    5.80    9.80
   0  -4  14   27.30   19.50
   0   4  14   17.80   11.60
   0  -4 -14   12.90   17.70
   0  -4 -14    7.90    9.70
   0   4 -14   -5.30   13.80
   0   4  14   12.00   11.40
   0  -4  14   -7.50   14.20
   0   4 -14   -0.30   14.10
   0  -4  14    5.00   11.10
   0   4  14  -31.00   22.20
   0   4 -14   38.70   18.60
   0  -4 -14    4.30    9.80
   0  -4 -14    4.60   11.20
   0  -4 -14   -1.40   10.30
   0   4 -14    1.10   12.20
  -1   4  14  598.44   40.30
   1   4 -14  650.83   40.40
   1  -4  14  593.14   48.10
  -1   4  14  644.94   34.10
  -1  -4 -14  641.44   45.80
  -1  -4 -14  671.73   36.60
  -1  -4 -14  659.93   35.20
   1  -4  14  616.34   38.30
  -1  -4 -14  624.54   38.10
   1  -4  14  639.04   40.40
   1   4 -14  657.73   44.40
  -1  -4 -14  643.24   36.80
   1   4 -14  641.74   39.50
   1   4 -14  651.73   46.90
  -1   4  14  688.23   39.00
   1   4 -14  654.43   42.80
   1  -4 -14  585.84   36.30
   1   4  14  672.43   53.29
  -1  -4  14  643.24   42.40
   1   4  14  618.84   44.90
  -1   4 -14  645.24   32.80
  -1   4 -14  610.34   39.10
  -1   4 -14  659.63   37.20
   1   4  14  560.64   40.30
  -1  -4  14  669.73   37.40
  -1  -4  14  676.03   35.80
   1  -4 -14  662.53   43.10
  -1   4 -14  634.44   39.70
  -1   4 -14  619.44   43.40
   1  -4 -14  604.24   21.70
  -2  -4 -14  177.38   25.10
   2  -4  14  188.38   26.20
   2   4 -14  118.29   30.00
  -2  -4 -14  170.88   29.90
  -2   4  14  162.68   22.70
  -2   4  14  178.78   26.60
  -2   4  14  169.48   30.00
   2   4 -14  172.08   27.00
  -2  -4 -14  149.49   20.10
  -2   4  14  176.98   32.60
  -2  -4 -14  216.48   33.70
  -2  -4 -14  113.49   21.70
   2   4 -14  115.99   23.00
   2  -4  14  146.99   31.90
   2  -4  14  126.49   27.00
  -2   4 -14  172.38   30.10
   2  -4 -14  171.98   29.20
  -2  -4  14  128.89   22.60
  -2  -4  14  217.08   31.60
   2  -4 -14  146.19   24.50
   2   4  14  188.48   35.80
  -2  -4  14  146.89   25.60
  -2   4 -14  116.69   23.90
  -2  -4  14  211.88   22.80
  -2  -4  14  208.88   28.90
   2   4  14  161.98   29.00
  -2   4 -14  199.08   27.90
  -2   4 -14  216.58   31.20
   3  -4  14  137.29   26.30
   3  -4  14  141.09   29.60
  -3  -4 -14  168.78   31.10
  -3  -4 -14  102.49   22.70
  -3  -4 -14  173.98   36.00
  -3   4  14   72.09   29.00
   3   4 -14  105.79   25.60
  -3   4  14  150.68   39.20
  -3   4  14  131.89   24.50
  -3  -4 -14  148.89   24.30
   3   4 -14  114.09   22.70
   3  -4 -14  106.19   33.20
   3  -4 -14  187.48   30.30
  -3  -4  14  134.59   34.10
  -3   4 -14  119.29   32.00
   3   4  14   75.19   30.40
  -3   4 -14  185.48   33.30
  -3  -4  14  171.98   37.40
   3  -4 -14   91.59   22.10
   0   5  14    1.10   19.80
   0  -5 -14    6.10   15.70
   0  -5  14   -7.60   15.80
   0  -5 -14  -16.30   20.50
   0   5 -14   15.30   16.90
   0   5  14    7.50   15.90
   0   5  14    2.70   14.00
   0   5  14  -10.00   15.20
   0   5 -14  -12.50   17.30
   0   5 -14   24.60   21.20
   0   5 -14  -15.80   16.90
   0  -5  14   37.30   18.40
   0   5 -14  -20.30   19.40
   0  -5 -14  -18.70   14.20
   0  -5  14   -8.50   16.20
   1   5 -14  137.79   26.20
   1  -5  14  194.38   28.20
  -1  -5 -14  127.49   23.00
   1   5 -14  163.38   33.40
  -1  -5 -14  172.38   26.50
   1  -5  14  241.28   40.40
  -1   5  14  184.38   26.90
  -1  -5 -14  193.88   32.50
   1   5 -14  227.88   33.30
  -1  -5 -14  182.58   27.10
  -1  -5 -14  197.68   30.60
  -1   5  14  219.38   25.60
   1  -5  14  215.58   32.80
  -1   5  14  173.48   28.20
   1  -5  14  186.08   31.20
  -1   5  14  155.88   17.60
  -1   5 -14  195.98   31.50
  -1   5 -14  181.88   27.40
  -1   5 -14  150.58   28.10
  -1  -5  14  176.88   29.00
   1  -5 -14  181.38   20.40
  -1  -5  14  212.28   29.90
  -1   5 -14  158.28   28.30
  -1  -5  14  198.38   28.50
   1   5  14  174.18   29.40
   1  -5 -14  186.38   28.10
  -1   5 -14  180.58   29.10
  -1   5 -14  287.37   41.10
   1  -5 -14  187.68   34.10
   1   5  14  181.18   36.00
  -2   5  14   41.50   28.50
   2   5 -14   39.70   22.90
  -2  -5 -14   63.19   26.20
   2  -5  14   95.79   17.80
   2  -5  14   74.49   25.50
  -2  -5 -14   88.09   21.00
   2   5 -14   67.79   23.90
  -2   5  14   61.49   20.20
  -2   5  14   42.60   28.40
  -2  -5 -14   71.99   21.00
   2  -5  14  101.39   26.50
  -2  -5  14   85.09   33.80
  -2   5 -14   64.39   26.00
   2  -5 -14  117.29   25.00
   2  -5 -14   63.29   20.20
  -2   5 -14   72.09   23.50
  -2  -5  14   47.00   18.20
  -2  -5  14   49.99   25.40
   2   5  14   98.99   29.60
  -2   5 -14   65.49   25.30
   3  -5  14   38.90   32.30
  -3   5  14   -3.40   36.50
  -3  -5 -14   73.89   31.00
   3   5 -14   79.29   27.90
  -3  -5 -14   47.10   36.30
   3   5 -14   38.80   25.70
   3  -5  14   29.20   28.30
  -3   5  14   36.00   38.50
  -3   5  14   34.00   25.00
   3   5  14  -44.30   33.80
  -3  -5  14   97.59   35.20
  -3   5 -14   26.20   35.00
   3  -5 -14   96.29   27.10
  -3  -5  14  102.79   38.20
   3  -5 -14   47.80   23.10
  -3   5 -14  103.89   35.30
   3  -5 -14   50.99   37.00
   0  -6  14  154.48   30.60
   0   6 -14  150.78   29.40
   0  -6  14  205.28   38.10
   0  -6 -14  222.68   34.70
   0  -6  14  267.17   42.20
   0  -6 -14  150.18   38.70
   0   6  14  159.68   27.40
   0   6  14  154.08   27.40
   0  -6  14  208.78   31.30
   0  -6 -14  225.98   36.50
   0   6 -14  133.39   30.60
  -1  -6 -14  172.48   32.60
   1   6 -14  135.09   32.20
  -1   6  14  126.09   24.80
  -1  -6 -14  129.59   30.10
  -1   6  14  145.89   31.30
   1  -6  14  152.88   26.50
   1  -6  14  124.79   27.50
  -1  -6 -14  133.89   41.00
  -1  -6 -14  137.59   26.90
   1  -6  14  104.49   28.10
   1   6 -14  163.98   31.90
   1  -6  14  124.29   36.90
  -1   6 -14  152.08   31.40
  -1  -6  14  120.79   32.90
  -1  -6  14  174.18   34.70
   1  -6 -14  114.49   28.30
  -1   6 -14  129.39   31.90
  -1  -6  14  169.38   33.00
  -1  -6  14  121.99   26.10
  -1   6 -14  151.18   31.00
   1  -6 -14  170.88   39.90
   1   6  14  109.99   31.40
   2  -6  14  150.28   31.20
  -2   6  14  123.59   38.50
   2  -6  14  115.49   29.20
   2   6 -14  106.79   30.20
   2   6 -14  140.39   33.30
  -2  -6 -14  107.39   27.50
  -2  -6 -14  141.29   36.40
   2  -6  14  121.09   39.00
  -2   6  14   95.89   35.70
  -2   6  14  128.09   26.90
  -2  -6 -14  122.89   28.90
  -2  -6  14  126.29   25.80
   2  -6 -14  147.59   32.50
  -2   6 -14  110.59   31.20
  -2  -6  14  137.49   39.90
  -2   6 -14  126.39   35.90
   2  -6 -14  136.89   39.30
   2   6  14  144.69   38.80
  -2  -6  14  149.99   37.10
  -2   6 -14  145.59   33.30
   0  -7  14  396.86   59.19
   0   7  14  415.16   51.49
   0  -7 -14  411.26   51.59
   0  -7 -14  391.66   63.19
   0   7 -14  377.46   56.29
   0   7 -14  324.67   52.09
   0  -7  14  377.06   53.89
   0   7 -14  313.07   48.20
   0  -7  14  495.85   79.39
   0   0  15    7.10    7.00
   0   0  15   -2.40    6.60
   0   0  15   -0.70    9.20
   0   0 -15   13.50    6.50
   0   0 -15   -7.80    6.00
   0   0 -15   -5.60    5.70
   0   0 -15   -1.90    5.80
   0   0  15   14.10    7.60
   0   0 -15    4.40    7.80
   0   0  15   -5.10    6.40
   0   0  15   -3.30    7.00
   0   0 -15  -17.50    8.20
   0   0  15    7.20    7.40
   1   0 -15  170.18   18.40
  -1   0  15  172.28   15.20
  -1   0  15  149.49   21.50
   1   0  15  190.98   16.10
   1   0  15  182.18   18.50
   1   0  15  142.79   18.80
  -1   0 -15  183.08   17.50
  -1   0  15  202.28   15.40
   1   0 -15  200.78   19.10
  -1   0  15  203.28   21.20
  -1   0  15  166.18   21.10
  -1   0  15  159.58   21.80
  -1   0 -15  174.48   22.40
  -1   0 -15  162.48   20.30
  -1   0 -15  185.58   15.00
   1   0  15  195.68   20.60
   1   0  15  175.88   20.20
   1   0 -15  194.78   16.00
   1   0  15  198.08   16.50
  -1   0  15  188.88   17.10
  -1   0  15  176.08   15.20
  -1   0  15  181.78   13.50
   1   0 -15  174.08   15.60
   1   0 -15  189.68   20.30
  -1   0  15  177.68   10.50
   1   0 -15  192.98   16.20
   1   0  15  169.68   18.50
  -1   0 -15  187.18   17.30
   2   0 -15  609.64   37.50
   2   0  15  498.75   25.60
  -2   0  15  578.44   41.20
   2   0 -15  561.14   34.60
   2   0 -15  562.54   27.00
  -2   0 -15  621.74   35.30
  -2   0  15  540.85   34.60
   2   0 -15  555.04   30.20
   2   0 -15  584.74   28.20
  -2   0 -15  561.04   33.50
   2   0  15  583.24   32.20
   2   0  15  526.65   40.30
   2   0  15  594.44   33.20
  -2   0 -15  572.24   28.30
   2   0 -15  552.84   27.30
  -2   0 -15  565.74   23.60
  -2   0  15  584.44   36.70
  -2   0  15  573.34   28.00
   2   0  15  622.14   35.10
  -2   0 -15  568.34   30.00
  -2   0  15  568.14   19.40
   2   0  15  559.54   38.20
   2   0  15  550.14   27.30
   2   0  15  603.04   34.80
  -3   0 -15  145.69   24.70
  -3   0 -15  131.99   21.70
   3   0 -15  137.89   19.80
  -3   0  15  156.68   32.30
   3   0 -15  128.89   26.20
   3   0 -15  106.09   17.70
   3   0  15  153.58   18.50
  -3   0 -15   97.59   12.50
  -3   0  15  129.79   21.90
   3   0  15  140.99   25.60
   3   0 -15  127.49   18.20
  -3   0 -15  113.89   24.40
   3   0  15   97.09   27.00
   3   0  15   91.69   12.30
   3   0  15  115.79   20.90
  -3   0  15  128.09   27.00
   3   0 -15  150.88   24.70
  -3   0 -15  111.89   13.10
   3   0 -15  141.69   17.70
   4   0  15  287.97   41.30
  -4   0 -15  256.27   39.50
  -4   0  15  211.78   42.40
  -4   0  15  261.67   33.80
   4   0  15  284.87   25.20
   4   0 -15  307.07   24.60
   4   0 -15  249.38   35.60
   4   0 -15  227.68   24.10
   4   0  15  408.76   53.09
  -4   0 -15  225.58   41.70
  -4   0  15  381.16   53.49
   4   0 -15  267.17   44.90
   0   1  15    7.70    8.30
   0  -1  15   14.30    7.70
   0  -1 -15   18.80    7.40
   0  -1 -15   -1.00    6.70
   0  -1  15   13.30    8.20
   0   1 -15    8.50    7.20
   0   1  15    2.50    7.50
   0   1  15    1.40    8.50
   0  -1 -15    9.70    8.40
   0   1  15   18.40   11.30
   0   1 -15    5.50    9.90
   0   1 -15   10.80   10.90
   0  -1  15   13.60   10.90
   0   1  15   -4.10    9.20
   0  -1  15    2.90    9.90
   0   1  15   16.00    7.50
   0  -1  15   19.70    8.80
   0  -1  15    8.50    8.70
   0   1 -15   19.70    8.00
   0  -1  15    9.20    8.80
   0  -1  15   16.80   11.60
   0   1  15    9.40    7.50
   0   1 -15    5.00    7.50
   0  -1 -15    4.60   10.60
   0  -1 -15   17.90    9.10
   0   1  15   -2.70    8.60
   0   1 -15  -13.00    9.20
   1  -1  15  350.36   23.10
   1   1 -15  318.77   21.70
   1  -1  15  325.07   20.70
  -1   1  15  320.27   26.60
   1   1 -15  312.67   21.50
   1   1 -15  374.16   22.50
  -1   1  15  359.06   20.90
   1  -1  15  350.36   22.60
  -1   1  15  347.87   27.20
   1   1 -15  348.97   24.80
  -1  -1 -15  332.07   22.30
  -1   1  15  325.47   24.60
   1  -1  15  361.16   29.70
   1   1 -15  380.36   26.00
   1   1 -15  355.86   20.30
  -1  -1 -15  339.87   18.90
  -1  -1 -15  366.86   22.40
   1   1 -15  379.76   26.40
  -1  -1 -15  334.97   26.60
   1   1 -15  316.37   25.00
   1  -1  15  352.06   24.80
   1  -1  15  353.36   27.00
   1  -1  15  337.07   17.90
  -1   1  15  335.57   15.20
   1  -1  15  347.77   24.60
  -1  -1 -15  352.26   28.10
  -1   1  15  304.47   17.50
   1   1  15  329.97   23.60
  -1  -1  15  332.17   27.70
   1   1  15  378.36   25.80
   1   1  15  344.97   20.70
  -1  -1  15  338.67   27.30
   1   1  15  328.27   22.30
   1   1  15  340.77   27.80
   1  -1 -15  326.47   22.70
  -1  -1  15  345.97   28.70
   1  -1 -15  348.87   26.60
  -1  -1  15  329.17   20.50
   1  -1 -15  350.66   29.80
  -1   1 -15  312.27   26.70
  -1   1 -15  311.87   22.10
   1  -1 -15  355.66   25.40
   1   1  15  322.17   27.10
  -1  -1  15  360.56   23.20
   1  -1 -15  343.07   21.80
  -1  -1  15  318.57   26.50
  -1   1 -15  337.37   22.40
  -1   1 -15  309.47   21.00
   1  -1 -15  311.27   18.90
  -1   1 -15  370.76   30.00
  -1  -1  15  336.17   23.40
  -1  -1  15  302.57   19.80
  -1   1 -15  338.77   26.70
   1   1  15  344.37   23.60
  -1  -1  15  367.56   20.80
   1   1  15  331.77   24.30
   1  -1 -15  321.37   21.00
  -1   1 -15  386.76   20.00
   2   1 -15  236.28   24.10
   2  -1  15  260.67   26.80
   2   1 -15  244.78   20.20
   2  -1  15  239.88   24.40
  -2  -1 -15  266.67   21.40
  -2   1  15  261.17   13.90
   2  -1  15  217.28   22.70
  -2   1  15  278.67   28.20
  -2  -1 -15  247.88   26.90
  -2  -1 -15  247.18   17.80
   2  -1  15  240.48   20.20
   2   1 -15  259.57   20.50
   2   1 -15  240.58   22.60
  -2   1  15  274.57   24.70
  -2  -1 -15  279.67   11.50
   2   1 -15  265.97   23.10
   2   1 -15  244.98   28.30
   2  -1  15  287.47   26.70
  -2  -1 -15  298.27   21.20
   2  -1  15  234.28   16.70
  -2  -1 -15  256.57   24.30
  -2   1  15  246.88   15.30
  -2   1  15  227.88   30.00
   2   1 -15  243.78   14.50
   2  -1  15  268.47   24.90
   2   1  15  200.98   22.80
  -2   1 -15  209.78   25.50
   2  -1 -15  251.77   19.10
   2   1  15  237.28   30.50
   2   1  15  283.17   26.70
  -2  -1  15  256.97   14.60
  -2  -1  15  237.78   31.60
  -2   1 -15  234.08   20.50
   2   1  15  259.67   21.70
   2  -1 -15  223.78   27.30
   2  -1 -15  280.47   20.70
   2  -1 -15  260.97   23.80
  -2   1 -15  222.78   19.80
  -2  -1  15  286.67   14.60
  -2   1 -15  269.97   27.20
   2  -1 -15  228.98   21.40
  -2   1 -15  248.38   25.40
  -2  -1  15  217.38   23.20
   2   1  15  291.67   27.70
   2   1  15  226.58   33.50
   2  -1 -15  247.18   17.00
  -2  -1  15  270.37   28.80
   2   1  15  256.37   24.50
  -3   1  15   65.59   22.20
   3  -1  15   63.09    9.70
   3  -1  15   95.29   22.20
   3  -1  15   73.39   37.50
  -3  -1 -15   87.49   16.70
   3  -1  15   56.39   18.10
  -3  -1 -15   52.79   20.10
   3   1 -15   69.39   12.10
   3   1 -15   95.09   23.20
   3  -1  15   50.89   16.60
  -3  -1 -15   47.60   24.40
   3   1 -15   74.69   15.20
   3   1 -15   76.79   19.00
   3  -1  15   59.89   12.90
  -3   1  15   38.10   22.80
   3   1 -15   59.99   14.60
   3   1 -15   35.40   19.70
  -3  -1  15   57.59   31.20
  -3   1 -15   96.59   20.30
  -3   1 -15   54.89   14.40
   3  -1 -15   68.19   13.20
  -3  -1  15   77.59   20.00
   3   1  15   68.69   17.40
   3   1  15   69.79   27.30
   3   1  15   70.69   14.70
   3   1  15   85.99   21.90
  -3  -1  15   36.50   20.90
   3  -1 -15   70.69   11.10
   3  -1 -15   88.09   22.60
  -3   1 -15   94.09   23.20
  -3   1 -15  104.59   21.90
   3  -1 -15   75.19   17.20
   3  -1 -15   59.99   12.90
   4  -1  15  322.57   42.60
   4   1 -15  262.27   26.10
   4   1 -15  262.97   41.50
  -4   1  15  243.08   37.70
  -4   1  15  216.38   45.50
  -4  -1 -15  256.57   42.30
   4  -1  15  205.88   37.90
   4   1  15  239.78   40.30
  -4  -1  15  232.68   38.90
   4  -1 -15  215.38   37.50
   4  -1 -15  246.48   16.90
   4   1  15  222.38   36.70
  -4   1 -15  262.27   38.50
   4   1  15  313.77   30.90
   4  -1 -15  203.28   36.60
  -4  -1  15  214.08   45.60
  -4  -1  15  182.28   37.40
   4  -1 -15  248.38   23.40
   0   2  15  127.19   22.30
   0   2  15  104.69   15.60
   0  -2  15  133.19   21.80
   0   2 -15  128.89   18.10
   0   2 -15  119.99   16.90
   0   2 -15   98.69   11.90
   0  -2  15   89.89   17.20
   0  -2  15   99.19   15.90
   0  -2 -15   91.69   14.50
   0   2  15  127.29   15.20
   0   2  15   95.89   10.00
   0   2 -15  112.49   19.20
   0  -2 -15  109.79   16.40
   0  -2  15  119.09   18.90
   0  -2 -15  127.79   18.40
   0   2 -15  149.09   18.30
   0  -2 -15   86.99   14.20
   0  -2  15  155.68   18.50
   0  -2  15  108.89   16.50
   0   2 -15  113.49   16.30
   0   2 -15  145.79   14.90
   0   2 -15  120.49   20.50
   0   2  15  120.29   16.30
   0  -2  15   82.19   14.90
   0  -2 -15  130.39   19.40
   1  -2  15  142.69   21.80
   1   2 -15  173.18   17.90
  -1   2  15  135.69   20.00
  -1  -2 -15  131.59   15.00
  -1  -2 -15  134.19   13.70
  -1   2  15  131.69   12.10
  -1  -2 -15  166.08   24.90
   1   2 -15  119.89   17.70
   1   2 -15  122.59   21.00
   1  -2  15  137.79   12.00
   1   2 -15  164.18   21.00
  -1  -2 -15  135.29   22.80
  -1  -2 -15  127.09   16.40
  -1   2  15   98.69   17.60
   1  -2  15  151.18   25.90
   1  -2  15  137.69   19.40
  -1   2  15  133.99   22.70
   1  -2  15  139.59   20.70
  -1  -2 -15  142.29   16.60
  -1   2  15  132.39   21.50
   1  -2  15  157.68   19.50
   1   2 -15  139.79   19.70
   1   2 -15  145.99   23.60
   1  -2  15  116.69   18.50
   1   2 -15  147.79   21.80
   1   2  15  111.79   18.60
   1   2  15  105.69   17.80
   1  -2 -15  152.18   16.10
  -1   2 -15  118.69   17.80
   1  -2 -15  144.29   18.80
  -1  -2  15  131.49   18.20
  -1   2 -15  153.98   17.00
  -1   2 -15  127.89   14.50
  -1  -2  15  129.59   22.90
  -1  -2  15  162.08   21.70
   1  -2 -15  150.08   17.70
   1  -2 -15  138.49   20.30
  -1  -2  15  136.89   14.70
   1  -2 -15  120.39   16.80
   1   2  15  129.89   17.90
   1   2  15  131.39   22.00
  -1  -2  15  154.58   22.10
  -1   2 -15  164.88   22.10
  -1   2 -15  171.98   20.90
   1  -2 -15  132.39   21.10
  -1  -2  15  134.59   18.40
   1   2  15  143.79   20.40
  -1   2 -15  144.59   21.40
  -1   2 -15  124.89   19.30
  -1  -2  15  125.99   20.90
   1  -2 -15  143.59   21.40
   2  -2  15   39.10   18.60
   2   2 -15   18.00   13.00
  -2  -2 -15   45.00    6.40
   2  -2  15   18.30   13.40
  -2  -2 -15   37.50   11.80
   2   2 -15   47.30   16.00
  -2  -2 -15   75.39   17.70
  -2  -2 -15   28.90   14.20
  -2  -2 -15   70.59   15.40
  -2  -2 -15   44.20   11.90
   2  -2  15   31.40   16.90
  -2  -2 -15   44.50   14.60
   2   2 -15   28.70   10.50
  -2   2  15   43.90   19.30
  -2   2  15   52.99   10.30
  -2   2  15   30.20   13.30
   2  -2  15   44.30   14.50
   2   2 -15   47.50   11.90
  -2   2  15   31.10   13.50
   2   2 -15   52.09   16.60
   2   2 -15   48.40   10.50
   2  -2 -15   39.80   13.00
   2  -2 -15   51.39    8.30
   2  -2 -15   44.80   13.20
   2  -2 -15   30.20   16.10
  -2   2 -15   37.40   12.30
  -2   2 -15   64.19   17.90
  -2  -2  15   55.79   16.40
  -2  -2  15   17.40   18.80
  -2  -2  15   39.40   10.40
  -2  -2  15   45.00   18.30
   2   2  15   -9.80   20.40
  -2  -2  15   45.20    9.30
  -2   2 -15   36.40   15.20
   2  -2 -15   40.60   12.20
  -2  -2  15   29.70    8.60
   2   2  15   43.30   18.50
   2  -2 -15   30.10   11.60
   2   2  15   53.89   17.50
  -2   2 -15   25.10   16.60
  -2   2 -15   47.10   12.70
   3   2 -15    2.30   21.30
   3  -2  15   -0.50   16.90
   3  -2  15  -24.00   18.30
  -3  -2 -15   -0.60    9.10
   3  -2  15   14.20   20.00
   3   2 -15  -11.20   11.40
  -3   2  15   21.60   18.60
   3   2 -15   -1.20   11.50
   3   2 -15  -10.20   12.30
  -3   2  15   28.20   23.60
  -3  -2 -15   -2.30   18.00
  -3   2  15    4.80   15.10
   3   2 -15    0.40   17.00
   3  -2 -15    7.70   12.70
   3  -2 -15   -3.10   11.70
   3  -2 -15   24.40   13.90
  -3  -2  15    7.80   21.40
  -3   2 -15   21.50    9.80
   3  -2 -15   -2.80   10.30
   3   2  15    3.90   20.00
  -3   2 -15   28.20   21.70
   3   2  15    4.40   31.00
  -3   2 -15   28.70   22.50
   3  -2 -15   12.50   18.70
  -3   2 -15   27.40   20.00
  -3  -2  15   23.40   24.30
  -3  -2  15   17.60   19.20
   3   2  15   -6.60   21.40
   4  -2  15  107.79   31.10
   4   2 -15   42.00   24.60
   4   2 -15  115.59   21.00
  -4   2  15  142.29   33.30
  -4   2  15   83.29   37.40
  -4  -2 -15   50.39   32.80
   4  -2  15   82.09   26.20
   4  -2 -15  136.39   37.60
   4  -2 -15  102.59   16.90
  -4  -2  15  130.99   41.30
  -4  -2  15  165.18   36.50
  -4  -2  15  126.59   36.60
   4  -2 -15   96.09   17.80
   4   2  15  112.89   35.80
   4   2  15  153.68   36.80
  -4   2 -15   85.99   36.20
   4  -2 -15  119.69   25.90
   4  -2 -15  119.39   19.60
  -4   2 -15  139.59   35.00
   0   3 -15  250.47   27.50
   0  -3  15  231.88   22.10
   0  -3 -15  215.88   24.70
   0   3  15  224.88   31.00
   0   3 -15  221.08   20.50
   0  -3 -15  263.17   15.80
   0   3  15  224.18   20.20
   0  -3  15  280.37   24.00
   0  -3 -15  285.37   24.10
   0  -3 -15  217.18   22.10
   0   3 -15  263.37   25.10
   0   3  15  292.67   22.00
   0   3  15  249.78   23.70
   0   3 -15  216.48   28.50
   0  -3  15  253.27   23.70
   0   3 -15  268.47   25.40
   0  -3 -15  319.47   31.50
   0  -3 -15  274.77   23.00
   0   3 -15  282.27   20.40
   0  -3  15  271.07   33.10
   0   3 -15  280.17   23.80
   0  -3  15  229.08   22.60
   1   3 -15  346.47   34.10
  -1   3  15  287.17   25.20
  -1   3  15  254.67   19.50
  -1  -3 -15  272.67   12.10
  -1   3  15  282.77   29.10
   1  -3  15  265.87   32.90
  -1  -3 -15  247.18   30.90
  -1   3  15  257.07   18.60
   1   3 -15  292.97   25.90
  -1  -3 -15  265.97   22.70
  -1   3  15  264.47   25.10
   1  -3  15  265.37   26.70
   1   3 -15  265.17   14.70
   1   3 -15  343.07   31.50
  -1  -3 -15  274.07   21.10
   1  -3  15  319.47   25.10
   1   3 -15  228.48   24.30
   1   3 -15  279.57   26.90
  -1  -3 -15  276.77   24.50
   1   3 -15  280.87   28.00
  -1  -3 -15  258.87   23.10
  -1   3 -15  234.58   25.40
  -1   3 -15  310.97   25.60
  -1  -3  15  254.47   26.70
   1   3  15  252.07   27.30
  -1   3 -15  289.77   30.80
   1   3  15  282.77   24.70
   1  -3 -15  272.37   30.60
  -1   3 -15  287.87   20.40
   1   3  15  263.77   24.90
  -1  -3  15  287.97   29.10
   1  -3 -15  277.17   23.40
   1   3  15  289.57   36.30
   1  -3 -15  298.87   30.40
  -1  -3  15  295.37   31.20
   1  -3 -15  285.47   24.00
  -1   3 -15  256.97   25.60
  -1  -3  15  263.27   22.40
   1  -3 -15  241.98   29.10
  -1  -3  15  249.88   24.90
  -2  -3 -15   35.30   13.70
  -2   3  15   38.60   16.00
  -2  -3 -15   43.40   17.70
  -2  -3 -15   13.90   11.90
   2  -3  15   28.20   15.00
  -2   3  15   36.80   17.70
   2  -3  15   14.60   17.00
   2   3 -15   34.00   15.80
   2  -3  15   60.19   22.30
  -2  -3 -15   48.80   16.00
   2   3 -15   40.70   14.80
  -2  -3 -15   48.90   21.40
  -2   3  15   33.50   13.30
  -2   3  15   17.70   13.10
  -2   3  15   16.50   16.80
   2   3 -15   23.20    8.80
   2   3 -15   21.10   21.30
  -2   3  15   23.50   12.20
   2   3 -15   30.90   13.60
  -2  -3  15   52.29   16.10
  -2  -3  15   26.60   18.40
   2   3  15   30.00   18.70
  -2   3 -15   19.10   20.40
  -2   3 -15   35.10   17.40
  -2  -3  15   37.10   22.90
   2  -3 -15    6.50   17.40
   2   3  15   39.00   23.10
  -2  -3  15   36.10   11.50
  -2   3 -15   -6.70   17.30
  -2   3 -15   16.20   15.00
  -2  -3  15   28.40   13.40
  -2  -3  15   63.19   12.40
   2  -3 -15   36.90   14.10
   2  -3 -15   35.70   19.90
  -2   3 -15   17.90   13.30
  -3  -3 -15   85.79   16.10
  -3  -3 -15   82.39   14.80
   3   3 -15   50.39   21.20
   3  -3  15   73.69   19.20
  -3   3  15   69.29   20.60
  -3  -3 -15   76.49   24.30
   3  -3  15   83.49   25.40
   3   3 -15   82.19   17.70
   3   3 -15  118.19   20.10
  -3   3  15   77.09   19.70
  -3   3  15   83.69   30.40
  -3  -3 -15   70.69   26.60
  -3   3  15   79.19   32.60
   3  -3 -15   65.69   18.40
  -3   3 -15   89.59   29.50
  -3   3 -15   84.99   26.60
   3   3  15   90.99   26.30
   3  -3 -15   60.19   24.40
  -3  -3  15  132.79   32.30
  -3   3 -15   69.99   15.30
  -3  -3  15   91.39   28.60
   3  -3 -15  106.29   18.20
  -4   3  15   66.89   45.00
   4   3 -15  175.78   32.00
  -4  -3 -15  135.29   35.50
   4   3 -15   77.89   24.30
   4  -3  15  109.19   56.39
   4  -3  15  145.29   31.10
   4   3  15  106.99   38.80
  -4  -3  15  104.29   39.10
   4  -3 -15   95.89   33.90
   4  -3 -15   86.09   20.20
  -4  -3  15  192.08   46.10
   4   3  15   97.89   40.30
  -4   3 -15  208.18   44.10
   0   4 -15   47.70   16.30
   0   4 -15   16.70   15.20
   0   4 -15    4.80   13.00
   0   4  15   34.10   13.70
   0   4 -15   64.29   19.80
   0   4 -15   32.00   14.60
   0  -4  15   51.39   16.50
   0  -4  15   -0.50   24.60
   0   4  15   28.20   13.30
   0  -4  15   17.90   13.60
   0  -4 -15   34.40   21.00
   0  -4 -15   34.10   13.20
   0  -4 -15   36.80   12.70
   0  -4 -15   29.60   13.80
   0   4 -15   22.60   10.50
   0  -4  15   18.90   15.80
  -1   4  15  195.28   26.10
  -1   4  15  234.88   31.50
  -1  -4 -15  181.98   25.80
   1   4 -15  244.38   34.10
   1   4 -15  268.37   39.10
  -1  -4 -15  299.57   36.40
  -1  -4 -15  214.58   26.50
  -1  -4 -15  213.38   26.90
  -1  -4 -15  283.67   25.30
  -1  -4 -15  223.88   25.00
   1   4 -15  231.18   30.60
  -1   4  15  216.28   24.90
   1   4 -15  200.58   32.40
   1  -4  15  240.78   28.10
   1   4 -15  224.88   28.70
   1  -4  15  248.58   36.10
   1  -4  15  241.28   28.20
  -1  -4  15  196.08   24.50
  -1   4 -15  200.48   30.40
   1   4  15  158.98   25.90
  -1   4 -15  202.38   26.20
   1   4  15  217.38   33.70
  -1   4 -15  253.47   23.10
  -1   4 -15  203.88   33.40
  -1   4 -15  221.98   27.30
   1  -4 -15  230.88   25.70
  -1  -4  15  225.78   31.80
  -1  -4  15  240.48   26.50
   1  -4 -15  253.07   34.00
  -2   4  15   66.49   18.30
  -2  -4 -15   86.39   26.40
  -2   4  15   81.09   13.80
  -2  -4 -15   62.99   13.30
   2   4 -15   46.40   20.00
  -2  -4 -15   85.19   19.60
  -2  -4 -15   73.19   17.00
   2   4 -15   49.50   17.20
  -2   4  15   82.39   29.00
   2   4 -15   69.19   19.50
   2  -4  15  107.29   26.70
  -2  -4 -15   84.29   24.50
  -2   4  15   49.40   24.80
  -2  -4  15   60.99   15.30
   2   4  15   36.90   18.90
   2  -4 -15   91.29   29.80
  -2  -4  15   68.39   18.40
  -2   4 -15   85.89   24.00
  -2   4 -15   83.99   22.10
  -2   4 -15   57.19    8.90
  -2  -4  15   73.99   21.50
   2  -4 -15   62.09   19.90
  -2  -4  15   73.99   23.30
   2  -4 -15   58.39   17.60
  -2   4 -15   52.19   23.10
  -2  -4  15   57.59   24.40
  -2   4 -15   95.89   20.60
  -2   4 -15   82.09   22.20
  -3   4  15  125.69   35.60
  -3  -4 -15  116.09   28.00
   3  -4  15  118.99   35.40
  -3   4  15  103.19   39.60
   3  -4  15  115.49   24.30
   3   4 -15   76.29   26.30
  -3   4  15   91.99   24.10
   3   4 -15   87.79   22.30
  -3  -4 -15   40.90   28.20
   3  -4 -15  118.39   24.20
  -3  -4  15  128.39   32.60
   3  -4 -15   97.79   30.40
   3  -4 -15   89.99   23.20
  -3   4 -15   86.19   28.00
  -3  -4  15  104.99   33.10
   3   4  15   45.50   30.20
  -3   4 -15   93.59   31.70
   0  -5  15   24.60   17.20
   0   5 -15    4.90   19.30
   0  -5 -15  -31.80   15.30
   0   5 -15   32.20   19.30
   0   5  15    4.30   13.90
   0   5 -15   -6.00   16.50
   0   5 -15   32.30   22.10
   0  -5 -15   15.00   15.10
   0   5  15   21.00   14.80
   0  -5  15   19.80   17.40
   0   5 -15   11.90   11.10
   0  -5  15   -8.20   17.60
   0  -5 -15   23.90   23.10
   1  -5  15   41.80   21.40
  -1  -5 -15   55.79   29.10
  -1   5  15   39.00   17.60
   1   5 -15   84.39   23.10
   1   5 -15   18.00   24.20
  -1  -5 -15   45.80   18.80
   1   5 -15   58.69   20.40
  -1   5  15   69.39   13.20
  -1  -5 -15   39.10   17.50
  -1   5  15   51.69   22.10
   1   5 -15   56.19   24.90
   1  -5  15   27.30   33.70
  -1  -5 -15   58.99   20.10
   1  -5  15   38.00   18.30
   1  -5  15   72.89   22.60
   1  -5 -15  102.99   30.00
  -1  -5  15   53.89   22.20
  -1  -5  15   75.59   20.70
   1   5  15   21.00   22.00
  -1   5 -15   41.70   23.60
  -1  -5  15   70.89   21.80
  -1   5 -15   34.70   22.20
  -1   5 -15   60.69   27.60
   1  -5 -15   43.70   21.90
  -1   5 -15   66.89   16.40
  -1   5 -15   36.90   19.10
   2  -5  15  138.29   28.70
  -2  -5 -15   78.79   29.90
  -2   5  15   62.59   28.10
   2  -5  15   74.19   29.60
  -2   5  15   25.80   28.00
   2   5 -15   63.79   24.50
   2   5 -15   70.09   23.20
  -2  -5 -15   42.50   20.90
  -2   5  15   65.69   21.60
  -2  -5 -15   42.90   18.60
   2   5  15   51.19   31.00
  -2   5 -15   78.29   13.50
   2  -5 -15   59.89   21.60
  -2   5 -15   48.20   24.70
  -2   5 -15   38.20   26.20
   2  -5 -15   79.99   25.70
  -2  -5  15  104.59   34.60
  -2   5 -15   63.39   24.40
  -2  -5  15   88.39   19.90
  -2  -5  15   54.29   24.80
   3  -5  15    9.00   28.90
  -3  -5 -15  115.59   36.30
  -3   5  15   68.09   40.40
  -3   5  15   35.10   25.90
   3  -5  15   49.99   39.00
  -3   5  15   19.50   36.10
   3   5 -15   64.59   29.60
  -3  -5 -15   32.00   29.70
   3   5 -15   17.70   26.30
  -3   5 -15   76.69   34.60
  -3  -5  15   36.70   38.10
   3   5  15   25.40   35.20
   3  -5 -15   17.40   26.20
  -3  -5  15   62.59   37.10
   3  -5 -15   -5.50   22.40
   3  -5 -15   29.40   37.80
  -3   5 -15   72.09   41.90
   0  -6 -15  -32.90   31.60
   0  -6  15   -5.40   23.70
   0   6  15   27.20   19.70
   0   6 -15    1.60   25.10
   0   6 -15   10.50   23.60
   0  -6 -15   40.90   21.20
   0  -6 -15   42.20   25.50
   0  -6  15   -6.90   21.30
   0   6 -15  -17.80   28.30
   0   6  15  -14.80   20.50
   0  -6  15  -13.90   23.10
  -1  -6 -15   83.69   27.80
   1   6 -15   24.20   25.40
   1  -6  15   68.19   24.50
   1  -6  15   14.00   21.80
   1  -6  15   51.89   24.40
  -1   6  15   33.20   28.00
  -1  -6 -15   22.90   22.00
  -1  -6 -15  147.89   37.30
  -1  -6 -15   89.69   26.50
  -1   6  15   61.49   24.00
   1   6 -15   39.90   25.90
   1  -6  15   81.89   32.10
   1  -6 -15   25.60   24.60
  -1  -6  15   42.50   24.30
  -1   6 -15  103.59   28.00
   1  -6 -15    4.80   29.50
  -1   6 -15   65.49   29.80
  -1  -6  15   80.29   28.20
  -1   6 -15   65.59   28.90
  -1  -6  15   72.19   31.80
  -1   6 -15  123.69   33.50
   1   6  15   73.49   27.90
  -1  -6  15  108.79   29.40
   2  -6  15   11.20   29.70
  -2   6  15    6.00   23.40
  -2   6  15   68.59   33.90
  -2  -6 -15   41.50   25.80
   2  -6  15    1.10   28.30
   2   6 -15   28.10   25.30
   2  -6  15    6.10   36.80
  -2  -6 -15   39.30   26.40
  -2  -6 -15  -27.20   31.20
  -2   6  15   54.19   33.70
   2  -6 -15    8.50   29.30
  -2  -6  15   43.70   38.60
   2   6  15   30.40   35.30
  -2   6 -15   16.50   29.90
  -2   6 -15   40.10   30.40
  -2   6 -15   73.89   30.40
  -2  -6  15   66.89   26.40
  -2  -6  15   92.89   38.00
   2  -6 -15   52.49   30.20
   0   0  16  300.47   21.00
   0   0 -16  268.07   23.10
   0   0 -16  301.07   21.10
   0   0 -16  303.27   20.40
   0   0  16  308.27   20.20
   0   0 -16  331.57   21.60
   0   0 -16  316.97   22.80
   0   0  16  296.67   21.40
   0   0 -16  273.97   19.30
   0   0  16  251.67   25.70
   0   0  16  296.37   20.90
   0   0  16  305.07   21.70
   0   0  16  310.07   21.90
   0   0  16  314.77   22.90
   1   0 -16  172.38   16.50
   1   0  16  168.48   18.40
  -1   0 -16  200.08   24.80
  -1   0  16  172.78   16.80
   1   0  16  157.58   20.90
   1   0 -16  147.39   15.40
   1   0 -16  149.79   18.80
   1   0 -16  144.19   19.00
  -1   0  16  184.08   16.60
   1   0  16  164.18   19.60
  -1   0  16  178.28   20.20
  -1   0  16  137.09   10.10
  -1   0 -16  128.29   16.40
   1   0  16  141.49   23.10
   1   0  16  132.89   18.00
  -1   0  16  142.29   15.70
  -1   0  16  145.09   17.40
   1   0 -16  162.58   18.60
   1   0  16  189.68   18.90
  -1   0  16  152.88   22.00
  -1   0 -16  142.79   14.50
  -1   0 -16  163.58   22.30
   1   0  16  163.78   16.40
   1   0 -16  184.88   17.20
  -1   0  16  138.09   23.60
   1   0  16  151.78   16.20
  -1   0  16  137.89   17.30
  -1   0 -16  155.88   18.10
  -1   0  16  151.58   22.80
   2   0 -16  161.18   25.60
   2   0  16  144.99   16.70
   2   0  16  157.18   22.50
  -2   0 -16  166.88   18.40
   2   0 -16  139.29   17.00
   2   0 -16  146.79   24.30
  -2   0 -16   98.59   18.20
   2   0  16  109.49   20.00
  -2   0  16  152.58   22.60
  -2   0  16  151.88   23.50
   2   0  16  218.88   37.90
  -2   0  16  144.09   26.60
   2   0  16  137.09   22.80
   2   0  16  123.49   21.00
  -2   0  16  137.89   11.70
  -2   0  16  140.39   17.10
  -2   0 -16  146.19   14.40
   2   0 -16  138.69   18.90
   2   0 -16  137.79   17.30
   2   0 -16  156.68   17.70
   2   0  16  121.99   21.60
  -2   0 -16  120.09   19.40
   2   0  16   99.39   14.80
  -2   0 -16  125.59   20.10
   3   0 -16   86.99   14.20
   3   0  16  112.29   20.80
   3   0  16   80.19   24.30
   3   0 -16   78.39   16.00
   3   0  16  130.99   25.70
   3   0  16   86.99   23.40
  -3   0  16  100.99   26.60
  -3   0 -16   74.49   18.80
   3   0  16   71.29   12.30
   3   0 -16   77.79   18.10
   3   0 -16   66.99   21.50
   3   0 -16   59.89   27.90
  -3   0 -16   82.29   21.50
  -3   0  16   37.80   24.00
   3   0 -16  101.49   15.40
   3   0  16   96.69   15.40
  -3   0 -16   78.89   12.60
  -3   0 -16   75.49   12.20
  -3   0  16   89.89   19.70
   4   0 -16  230.48   16.70
   4   0 -16  185.18   25.50
  -4   0  16  208.18   44.70
  -4   0  16  328.47   50.89
   4   0  16  205.98   37.30
  -4   0  16  285.27   40.00
   4   0 -16  217.78   36.10
   4   0 -16  144.09   23.40
   4   0 -16  194.48   36.00
   4   0  16  186.58   34.30
   4   0  16  160.98   24.90
  -4   0 -16  195.98   38.50
  -4   0 -16  262.67   43.00
   0   1  16 2692.63   76.69
   0   1 -16 2602.74   80.59
   0   1  16 2663.53   71.49
   0   1 -16 2739.53   80.79
   0  -1  16 2642.14   84.99
   0   1  16 2608.14   78.99
   0   1  16 2620.24   82.29
   0  -1 -16 2584.84   78.39
   0  -1  16 2602.94   77.69
   0  -1 -16 2709.43   84.99
   0   1  16 2551.64   84.29
   0   1 -16 2655.53   84.89
   0  -1  16 2592.34   79.29
   0  -1  16 2667.73   79.99
   0  -1  16 2653.53   82.49
   0   1  16 2653.13   80.09
   0  -1  16 2565.14   78.49
   0   1 -16 2651.83   80.39
   0  -1 -16 2599.04   80.09
   0  -1 -16 2432.56   78.99
   0  -1 -16 2668.83   79.09
   0  -1  16 2637.14   83.29
   0  -1 -16 2602.34   80.39
   0   1  16 2567.94   82.39
   0  -1  16 2757.32   79.19
   0   1 -16 2746.93   82.79
   0   1  16 2683.73   78.19
   0   1 -16 2690.13   79.89
   1   1 -16  133.39   19.90
  -1  -1 -16   96.09   17.00
   1  -1  16   95.39   13.40
   1  -1  16   63.89   14.60
  -1   1  16   81.39   12.50
  -1  -1 -16   85.89   15.20
  -1  -1 -16   90.89   17.50
   1  -1  16  144.69   18.70
  -1   1  16   91.59   10.40
   1   1 -16  108.99   17.60
  -1   1  16  116.79   19.20
   1   1 -16   91.59   15.00
   1   1 -16  106.79   16.10
   1   1 -16  105.99   16.60
  -1  -1 -16  110.89   13.60
  -1  -1 -16  119.99   16.20
   1  -1  16   83.19   16.10
   1  -1  16   86.99   17.50
   1   1 -16   91.69   15.60
  -1   1  16  116.89   19.10
  -1   1  16  104.99   17.40
   1  -1  16   86.09   15.70
   1  -1  16  102.89   14.40
   1   1 -16  110.29   17.20
   1  -1  16   91.39   15.20
   1   1 -16  106.09   17.50
  -1   1  16   67.49   12.70
   1  -1 -16   95.99   16.20
  -1  -1  16  104.09   17.40
   1  -1 -16  101.19   17.80
   1   1  16  126.09   20.10
  -1  -1  16  107.49   17.00
   1   1  16   86.99   16.60
   1   1  16   95.79   15.50
  -1   1 -16  100.29   15.00
  -1   1 -16   85.09   13.30
   1   1  16   87.49   15.50
  -1   1 -16  108.19   16.40
  -1   1 -16  108.69   15.50
  -1   1 -16  110.79   19.10
  -1  -1  16  110.59   18.70
  -1  -1  16   94.59   16.10
   1  -1 -16   93.69   16.50
   1  -1 -16  115.39   14.70
   1   1  16  109.79   20.20
   1   1  16  107.99   16.20
  -1   1 -16  113.09   18.40
  -1  -1  16  109.69   11.00
   1   1  16  115.19   15.20
   1  -1 -16  102.99   17.10
  -1  -1  16   90.19   17.30
   1  -1 -16  108.79   14.50
   1  -1 -16  128.09   15.40
  -1  -1  16  109.29   19.20
  -1  -1  16  124.49   17.50
   1   1  16   94.39   17.10
  -1  -1  16  160.18   24.30
  -2  -1 -16 1052.99   43.00
   2   1 -16 1108.69   42.80
   2   1 -16 1094.59   43.80
   2   1 -16 1069.19   42.90
  -2   1  16 1129.79   55.89
   2   1 -16 1087.69   34.50
   2   1 -16 1104.79   46.40
   2  -1  16 1035.60   45.90
  -2  -1 -16 1088.19   31.20
   2  -1  16 1063.29   39.10
  -2  -1 -16 1094.09   42.50
  -2  -1 -16 1135.39   39.80
   2   1 -16 1145.59   50.79
   2  -1  16 1098.09   50.79
  -2   1  16 1108.19   52.99
   2   1 -16 1167.78   52.79
   2  -1  16 1119.99   42.10
  -2  -1 -16 1140.69   50.09
   2  -1  16 1091.49   48.60
   2  -1  16  968.40   44.60
   2  -1  16 1080.19   54.49
  -2  -1 -16 1077.29   47.60
  -2   1  16 1065.19   47.70
  -2  -1  16 1099.99   50.79
  -2  -1  16 1032.20   44.50
  -2   1 -16 1060.59   49.40
  -2  -1  16 1035.20   56.59
   2   1  16 1087.09   55.89
   2  -1 -16 1128.99   36.90
   2   1  16  977.70   53.19
  -2   1 -16 1071.29   43.00
   2  -1 -16 1120.19   53.69
   2   1  16 1138.09   45.50
   2   1  16 1006.50   46.20
  -2   1 -16 1107.69   48.80
   2   1  16 1083.19   50.99
   2   1  16 1133.59   50.29
   2  -1 -16 1133.59   49.00
  -2   1 -16 1029.90   40.90
   2  -1 -16 1090.49   42.90
   2  -1 -16 1084.09   41.70
   2   1  16 1013.90   45.90
   2  -1 -16 1126.09   45.70
  -2   1 -16 1105.59   49.60
  -3  -1 -16   -5.80   12.40
   3   1 -16   -2.80   11.70
   3   1 -16   18.40    4.10
  -3  -1 -16   17.80   12.00
   3  -1  16   -8.10   16.30
  -3  -1 -16  -17.90   17.40
   3   1 -16   50.39   19.00
   3  -1  16   14.90    7.50
   3  -1  16   -9.10   16.30
  -3  -1 -16   18.50   10.00
  -3  -1 -16    5.60   25.60
   3   1 -16   -9.90   12.80
  -3   1  16    4.40   21.20
   3  -1  16   22.30   12.10
   3  -1  16   -5.10   18.90
   3   1 -16   -4.60   21.30
   3  -1  16   19.60   18.50
   3   1 -16  -21.40   19.50
  -3   1  16   60.99   27.30
   3   1 -16   -2.40   12.10
  -3  -1  16   13.60   23.90
  -3   1 -16   20.10   16.90
   3  -1 -16   14.00   10.80
   3  -1 -16   34.30   18.90
  -3  -1  16   -8.30   20.90
   3   1  16   -6.80   18.70
   3   1  16    9.10   11.30
   3   1  16   20.70   19.80
   3  -1 -16   26.40   11.10
  -3   1 -16    9.70   17.70
  -3   1 -16   -4.00    9.50
   3   1  16   -2.70   16.30
   3  -1 -16   13.00   12.20
   3  -1 -16   19.60   11.60
   3  -1 -16   19.60   13.40
  -3  -1  16   15.40   17.20
  -4   1  16  164.68   37.50
   4   1 -16  194.48   27.00
   4  -1  16  210.48   35.20
  -4   1  16  241.98   47.80
   4  -1  16  143.99   34.00
   4   1 -16  309.97   43.50
  -4  -1 -16  237.18   40.80
  -4  -1  16  209.08   38.10
   4   1  16  279.87   48.50
  -4   1 -16  173.48   36.30
   4   1  16  227.88   37.80
   4  -1 -16  267.67   20.00
   4   1  16  199.38   29.50
   4  -1 -16  246.08   26.10
  -4   1 -16  223.68   43.30
  -4  -1  16  217.98   38.50
   4  -1 -16  263.47   47.80
   4  -1 -16  195.38   27.10
  -4  -1  16  186.88   42.50
   0  -2 -16  110.59   15.70
   0   2  16  131.29   16.60
   0   2  16  107.49   19.20
   0   2  16  131.29   11.10
   0  -2  16   99.09   15.80
   0   2 -16  146.59   17.90
   0  -2 -16  144.49   15.50
   0  -2  16  148.89   19.80
   0  -2 -16  110.69   17.50
   0  -2  16  139.69   20.50
   0   2 -16  118.39   14.30
   0   2 -16  135.19   19.70
   0  -2 -16  128.39   18.90
   0   2 -16  116.39   20.80
   0  -2 -16  132.39   16.50
   0  -2 -16  112.09   18.80
   0   2  16  111.39   16.90
   0  -2  16  148.29   21.80
   0  -2  16  131.99   20.70
   0   2 -16  134.39   20.30
   0  -2  16  123.39   19.50
   0   2 -16  110.49   18.30
   0  -2  16  113.89   16.60
   0   2  16  112.09   17.10
  -1  -2 -16 2172.08   65.19
  -1  -2 -16 2069.69   75.89
  -1   2  16 2194.68   76.49
  -1   2  16 2266.17   68.49
  -1   2  16 2068.29   74.99
   1   2 -16 2237.38   70.19
   1  -2  16 2207.48   71.89
   1   2 -16 2355.96   76.99
  -1  -2 -16 2156.58   77.69
  -1   2  16 2175.48   60.59
   1  -2  16 2197.88   60.69
  -1   2  16 2190.38   75.99
  -1  -2 -16 2240.08   72.39
   1  -2  16 2170.38   76.19
   1   2 -16 2376.86   78.99
   1   2 -16 2077.99   73.29
   1   2 -16 2143.89   71.99
  -1   2  16 2060.09   63.19
  -1  -2 -16 2289.47   63.99
   1  -2  16 2137.49   75.49
   1  -2  16 2192.38   72.49
   1  -2  16 2339.97   80.39
   1   2 -16 2156.48   70.89
  -1  -2 -16 2268.67   70.99
   1  -2  16 2006.60   71.49
   1   2 -16 2227.78   74.69
  -1  -2  16 2205.68   66.49
   1   2  16 2221.88   73.89
  -1  -2  16 2095.69   76.29
   1   2  16 2244.28   79.69
   1  -2 -16 2183.38   71.19
   1  -2 -16 2118.99   78.59
  -1   2 -16 2277.87   66.49
   1  -2 -16 2218.68   63.99
   1  -2 -16 2208.48   77.79
   1  -2 -16 2159.08   72.99
  -1   2 -16 2318.07   84.99
  -1   2 -16 2128.59   69.89
   1   2  16 2245.78   70.09
  -1  -2  16 2095.39   73.59
  -1   2 -16 2113.89   72.09
   1  -2 -16 2126.59   75.19
  -1   2 -16 2173.88   77.89
  -1  -2  16 2198.08   72.49
  -1  -2  16 2163.88   77.89
   1   2  16 2198.28   73.69
   1  -2 -16 2268.97   69.79
  -1  -2  16 2145.59   68.29
  -1   2 -16 2208.08   71.39
   1   2  16 2140.49   78.29
  -1  -2  16 2192.08   69.89
   2  -2  16  755.82   45.40
  -2   2  16  796.02   44.00
   2   2 -16  823.12   38.70
   2   2 -16  798.42   44.40
   2   2 -16  798.32   41.40
   2   2 -16  774.42   33.80
  -2  -2 -16  779.22   44.30
   2  -2  16  815.62   39.40
  -2   2  16  795.12   50.59
  -2   2  16  782.32   38.20
   2  -2  16  831.52   47.70
  -2  -2 -16  805.62   39.60
  -2  -2 -16  751.72   36.90
  -2  -2 -16  822.12   24.10
  -2  -2 -16  751.72   35.50
  -2   2  16  820.02   30.50
   2  -2  16  783.62   40.30
  -2  -2  16  825.92   51.39
   2  -2 -16  784.22   46.10
   2   2  16  800.62   45.50
   2  -2 -16  803.62   25.60
  -2   2 -16  795.62   43.60
   2  -2 -16  757.52   39.20
  -2  -2  16  830.02   31.30
   2  -2 -16  769.02   36.70
  -2   2 -16  769.12   37.80
  -2  -2  16  829.32   41.70
   2   2  16  765.42   49.10
   2  -2 -16  789.92   37.40
  -2   2 -16  757.32   38.70
  -2   2 -16  835.52   44.80
  -2  -2  16  748.43   30.10
  -2  -2  16  787.12   31.10
  -2   2 -16  715.93   42.40
   2  -2 -16  821.62   41.50
   2   2  16  801.52   47.50
  -2  -2  16  787.72   48.70
   2   2  16  805.62   39.90
   3   2 -16  290.57   27.10
  -3  -2 -16  304.47   37.00
  -3  -2 -16  289.47   22.40
   3  -2  16  307.17   40.50
  -3   2  16  344.17   46.30
   3   2 -16  311.37   36.80
   3  -2  16  280.07   33.50
   3  -2  16  293.17   31.70
   3   2 -16  291.07   45.90
  -3   2  16  303.17   36.20
   3   2 -16  282.17   28.10
  -3   2  16  309.57   37.10
   3   2 -16  330.07   31.20
   3   2  16  274.07   37.70
  -3  -2  16  277.67   39.40
   3  -2 -16  325.37   27.70
  -3   2 -16  378.76   40.80
   3  -2 -16  319.57   28.10
  -3  -2  16  253.17   40.80
  -3  -2  16  304.17   38.10
  -3   2 -16  282.27   22.60
   3  -2 -16  364.96   33.20
   3  -2 -16  384.36   37.60
   3   2  16  325.47   42.50
   3  -2 -16  316.47   26.40
  -3   2 -16  314.27   40.00
  -4   2  16  101.49   32.00
   4  -2  16  140.19   34.10
  -4  -2 -16   77.79   37.90
   4   2 -16   87.69   20.50
  -4   2  16   26.50   39.70
   4  -2  16   72.89   28.70
   4   2 -16   29.40   24.80
   4  -2 -16   61.19   23.50
  -4  -2  16  177.38   42.60
  -4  -2  16  148.39   36.20
   4  -2 -16   76.09   20.10
   4   2  16   98.49   33.60
  -4   2 -16  151.08   39.80
   4   2  16  104.79   35.70
  -4   2 -16   81.49   36.20
  -4  -2  16  147.79   38.90
   4  -2 -16   84.79   19.00
   4  -2 -16  126.79   35.90
   4  -2 -16   93.79   31.20
   0  -3  16 2563.54   91.29
   0  -3 -16 2615.94   84.09
   0  -3  16 2556.64   82.49
   0   3 -16 2597.44   74.89
   0  -3 -16 2564.24   81.49
   0   3 -16 2565.34   90.39
   0   3  16 2585.54   90.49
   0  -3  16 2573.04   81.19
   0   3  16 2476.15   76.79
   0  -3  16 2525.55   77.99
   0  -3 -16 2544.25   90.09
   0  -3  16 2521.35   81.69
   0   3 -16 2584.84   74.49
   0  -3 -16 2757.82   81.79
   0   3  16 2624.94   85.99
   0   3 -16 2469.95   84.39
   0  -3 -16 2525.35   85.29
   0   3 -16 2668.23   84.29
   0   3  16 2570.24   79.49
   0   3 -16 2452.95   83.79
  -1   3  16  258.57   27.00
   1   3 -16  323.37   30.00
  -1  -3 -16  245.08   24.00
  -1   3  16  283.47   20.10
   1  -3  16  283.17   28.40
   1   3 -16  226.18   32.30
  -1   3  16  272.37   27.20
   1  -3  16  268.37   33.90
   1   3 -16  276.87   17.10
   1  -3  16  302.77   27.00
  -1  -3 -16  250.57   31.80
  -1  -3 -16  299.77   24.90
  -1  -3 -16  261.67   21.80
  -1  -3 -16  250.87   23.90
   1   3 -16  251.57   32.00
  -1   3  16  281.77   27.10
   1   3 -16  287.67   25.90
   1   3 -16  274.87   25.70
  -1   3  16  273.37   16.30
   1   3 -16  315.07   26.70
  -1  -3 -16  288.47   14.20
   1  -3 -16  261.57   31.20
  -1  -3  16  261.67   26.60
  -1   3 -16  288.17   26.80
   1   3  16  273.67   26.10
  -1   3 -16  258.67   31.50
  -1   3 -16  274.07   27.00
  -1  -3  16  316.87   30.90
   1  -3 -16  326.07   33.20
   1   3  16  273.87   25.30
  -1   3 -16  290.17   20.70
   1  -3 -16  269.87   24.80
   1  -3 -16  262.77   29.60
   1   3  16  271.87   29.30
  -1  -3  16  270.77   31.80
  -1  -3  16  336.07   25.00
  -1  -3  16  280.27   26.50
  -1   3 -16  287.37   28.40
   1   3  16  289.07   34.30
   1  -3 -16  249.28   24.10
   2  -3  16 1027.30   48.90
  -2   3  16 1104.29   44.80
   2   3 -16 1067.19   52.09
   2  -3  16 1158.28   60.89
   2   3 -16 1119.99   49.60
  -2   3  16 1150.28   36.40
  -2  -3 -16 1116.99   48.00
   2  -3  16 1079.59   81.79
  -2  -3 -16 1067.59   53.89
  -2   3  16  950.10   63.59
   2   3 -16 1063.99   34.00
  -2   3  16 1187.88   42.80
  -2  -3 -16 1054.69   28.10
   2   3 -16  951.50   44.30
  -2  -3 -16 1005.90   56.79
  -2  -3 -16 1086.29   45.90
   2   3 -16 1096.29   52.79
  -2   3  16 1116.29   53.39
  -2  -3 -16 1093.69   30.50
  -2   3 -16 1027.70   54.99
  -2  -3  16 1158.78   61.19
   2  -3 -16 1062.39   50.79
   2   3  16 1147.19   61.29
  -2   3 -16 1119.39   57.79
  -2   3 -16 1137.89   49.30
  -2  -3  16 1084.29   40.60
  -2   3 -16 1194.18   56.59
   2   3  16 1098.19   61.49
  -2  -3  16 1055.79   42.50
  -2  -3  16 1008.20   59.19
  -2  -3  16 1114.59   53.79
   2  -3 -16 1116.09   47.10
   2  -3 -16 1082.69   60.59
  -2   3 -16 1059.19   51.99
  -2  -3  16 1037.70   42.00
  -3  -3 -16    3.60   13.80
  -3   3  16  -27.10   26.10
  -3  -3 -16   46.50   26.00
  -3  -3 -16   21.70   13.30
   3  -3  16   23.00   19.90
   3  -3  16   13.90   23.70
  -3  -3 -16   -6.40   22.00
   3   3 -16   10.20   16.90
   3   3 -16  -26.70   18.00
   3   3 -16   -6.70   14.40
  -3   3  16   13.80   19.50
   3  -3 -16   18.90   16.30
   3  -3 -16   12.60   15.60
  -3  -3  16    5.60   22.80
   3   3  16   -0.20   21.00
   3  -3 -16   11.50   24.00
  -3   3 -16    0.70   13.90
  -3  -3  16   19.50   28.20
  -3   3 -16   50.69   26.10
  -3  -3  16   11.10   24.30
  -3   3 -16   27.90   25.00
  -4  -3 -16  256.27   43.70
   4   3 -16  232.28   38.10
   4  -3  16  278.67   46.40
  -4   3  16  191.58   51.39
   4  -3  16  224.78   34.70
   4   3 -16  226.78   33.50
   4   3  16  217.08   47.80
  -4   3 -16  370.46   62.39
  -4  -3  16  272.17   50.39
   4  -3 -16  176.88   43.20
  -4   3 -16  296.67   51.09
   4   3  16  195.48   47.20
   4  -3 -16  210.78   31.40
  -4  -3  16  272.77   47.90
   0  -4  16   -6.50   14.10
   0  -4  16   20.40   17.40
   0   4  16    7.00   11.20
   0   4  16   21.30   13.80
   0  -4 -16   13.10   12.60
   0   4 -16    2.70   11.90
   0   4 -16  -10.70   20.00
   0   4 -16    7.40   19.70
   0  -4  16    4.10   15.80
   0  -4 -16   15.70   18.40
   0  -4 -16   22.90   17.30
   0   4 -16    5.00   14.80
   0  -4 -16   19.20   15.60
   0   4 -16   35.80   13.40
   0  -4 -16    6.80   18.50
   0   4 -16   10.50   18.50
  -1  -4 -16  584.04   36.00
  -1   4  16  523.15   23.20
  -1  -4 -16  553.94   35.70
   1   4 -16  598.44   39.50
  -1   4  16  583.14   38.70
  -1  -4 -16  562.14   47.80
   1   4 -16  516.15   44.00
  -1  -4 -16  522.05   34.90
   1   4 -16  594.64   44.00
   1  -4  16  576.64   39.40
  -1  -4 -16  603.44   37.10
  -1  -4 -16  560.34   35.90
   1  -4  16  451.55   52.29
   1   4 -16  601.44   47.40
   1  -4  16  502.25   47.80
   1   4 -16  468.15   37.60
  -1   4  16  570.34   33.50
  -1  -4  16  572.54   42.10
   1  -4 -16  611.84   44.70
  -1   4 -16  612.64   39.10
   1  -4 -16  506.65   40.20
  -1   4 -16  551.64   35.90
  -1   4 -16  582.54   46.00
  -1   4 -16  560.44   32.50
  -1  -4  16  515.05   34.80
   1   4  16  580.24   40.40
   1  -4 -16  534.25   43.00
   1   4  16  612.54   38.80
  -1  -4  16  603.64   37.10
   1   4  16  584.24   53.59
   2  -4  16  142.89   26.20
   2   4 -16  132.29   25.00
  -2  -4 -16  170.38   31.90
   2   4 -16  134.99   24.30
  -2   4  16  109.29   16.10
   2  -4  16  116.39   24.50
  -2  -4 -16  129.79   22.70
  -2  -4 -16  110.89   27.30
  -2   4  16   85.79   31.30
  -2   4  16  159.48   30.00
  -2  -4 -16  141.69   21.90
   2   4 -16  120.39   24.50
  -2  -4 -16  187.78   27.80
  -2   4 -16  169.28   28.90
   2  -4 -16  174.98   28.60
   2  -4 -16  177.08   26.10
  -2  -4  16  151.78   35.40
   2   4  16   81.49   23.70
  -2   4 -16  151.68   37.30
  -2   4 -16  116.09   26.10
  -2  -4  16  141.09   27.90
  -2  -4  16  136.09   24.90
  -2   4 -16  190.58   30.40
  -2  -4  16  146.29   23.00
  -2  -4  16   79.69   30.30
   2  -4 -16  105.99   27.40
  -2   4 -16  136.69   12.30
  -2   4 -16  155.58   26.80
   3  -4  16  465.35   43.40
  -3   4  16  437.36   44.60
  -3   4  16  499.55   58.79
  -3  -4 -16  538.25   54.49
  -3  -4 -16  458.45   48.60
  -3   4  16  384.76   61.29
   3  -4  16  424.76   49.80
   3   4 -16  348.57   41.10
   3   4 -16  309.87   45.10
   3  -4 -16  311.67   52.59
   3  -4 -16  418.76   40.10
  -3   4 -16  507.35   53.99
   3   4  16  438.36   56.39
  -3  -4  16  423.56   51.29
  -3   4 -16  497.75   58.49
   3  -4 -16  392.16   38.00
  -3  -4  16  381.86   56.59
   0  -5  16 1009.50   50.29
   0   5  16  980.40   53.39
   0  -5  16  912.41   51.19
   0   5 -16  937.21   52.89
   0   5  16  804.42   45.20
   0  -5 -16  929.21   51.89
   0   5 -16  979.40   62.29
   0  -5 -16  941.91   40.90
   0  -5 -16  931.81   50.69
   0   5 -16  932.01   36.70
   0  -5 -16  907.91   62.39
   0   5 -16 1001.40   54.09
   0   5 -16  963.30   55.49
   0  -5  16  996.60   52.59
   1   5 -16    8.50   18.50
   1   5 -16   43.30   27.50
  -1  -5 -16   58.39   29.30
   1  -5  16   29.50   21.70
  -1   5  16    7.00   17.60
  -1   5  16    2.00   20.10
  -1  -5 -16    0.10   18.00
  -1  -5 -16    5.70   15.90
   1  -5  16   63.09   25.20
   1   5 -16   54.59   21.80
   1  -5  16    7.40   18.50
   1   5 -16   14.70   20.00
  -1  -5 -16   71.89   19.80
  -1   5 -16   -7.00   18.50
   1   5  16    8.70   21.00
  -1   5 -16   42.30   17.20
  -1   5 -16   22.70   18.30
  -1   5 -16   61.99   22.10
  -1  -5  16   21.00   19.40
  -1   5 -16   25.90   27.00
  -1  -5  16   28.80   19.00
   1  -5 -16   -6.40   24.20
  -1  -5  16   12.00   23.10
   1  -5 -16   61.69   21.40
   1   5  16   25.90   17.60
  -2  -5 -16  365.96   35.40
  -2   5  16  288.57   43.50
  -2  -5 -16  310.17   45.20
  -2   5  16  294.87   38.70
   2  -5  16  379.26   44.80
  -2   5  16  405.26   53.99
  -2  -5 -16  259.07   35.80
   2  -5  16  254.17   41.10
   2   5 -16  253.07   41.20
   2   5 -16  290.77   41.60
   2   5 -16  359.76   43.00
  -2  -5  16  314.87   33.10
   2  -5 -16  308.87   47.40
  -2   5 -16  346.07   47.00
   2  -5 -16  290.37   37.20
  -2   5 -16  395.06   39.70
  -2   5 -16  312.97   44.50
   2   5  16  407.26   51.59
  -2  -5  16  308.77   43.50
  -2  -5  16  441.06   52.39
   3   5 -16   12.80   28.00
  -3   5  16   33.00   25.40
  -3   5  16  101.09   40.10
   3  -5  16   43.70   30.50
  -3   5  16  -10.70   39.80
  -3  -5 -16  -35.80   35.30
   3  -5  16  -15.10   35.10
   3   5 -16   25.70   27.20
  -3  -5 -16    2.00   29.00
  -3   5 -16   58.29   33.40
  -3  -5  16   55.39   39.00
   3  -5 -16   12.60   25.20
  -3  -5  16   -0.60   39.90
   3  -5 -16   20.40   32.90
   3   5  16   10.50   36.50
   3  -5 -16   29.20   28.40
   0  -6  16   24.50   26.80
   0   6  16   35.70   21.80
   0  -6 -16   61.79   22.20
   0  -6 -16   74.09   33.70
   0  -6  16   -3.80   27.10
   0  -6 -16   68.79   26.10
   0  -6  16   35.90   23.80
   0   6  16   10.70   23.10
   0   6 -16  -12.20   26.30
   0   6 -16   -3.80   27.40
   0   6 -16    4.70   22.40
   0  -6  16  -57.19   35.00
  -1  -6 -16  429.76   64.69
  -1   6  16  486.75   56.09
   1  -6  16  449.56   44.10
  -1  -6 -16  429.96   46.20
  -1   6  16  362.66   47.10
  -1  -6 -16  351.66   43.40
   1  -6  16  444.46   44.90
   1   6 -16  456.95   51.69
   1  -6  16  393.76   44.10
  -1  -6 -16  414.26   44.30
   1  -6  16  349.57   51.89
   1   6 -16  426.16   47.70
  -1  -6  16  374.36   44.90
  -1  -6  16  470.15   49.00
   1   6  16  493.65   47.70
   1  -6 -16  402.66   44.20
  -1   6 -16  384.46   49.40
   1   6  16  393.76   51.59
  -1   6 -16  427.36   48.30
  -1  -6  16  495.15   48.80
  -1   6 -16  316.17   52.69
   1  -6 -16  513.55   61.89
  -1  -6  16  335.97   52.39
  -1   6 -16  579.14   63.69
   2  -6  16   -2.60   35.40
  -2  -6 -16  -33.80   26.90
   2   6 -16  -33.00   29.40
  -2   6  16   -6.30   34.70
  -2  -6 -16   57.59   26.20
  -2   6  16   -8.70   25.80
  -2   6  16   54.19   37.40
   2   6 -16   -5.00   27.10
   2  -6  16  -14.30   31.70
  -2  -6 -16  -25.80   33.00
   2   6  16    4.40   33.60
   2  -6 -16  -23.90   29.30
   2  -6 -16   85.09   34.20
  -2   6 -16   26.80   32.00
  -2  -6  16   80.09   36.50
  -2   6 -16   37.20   36.10
  -2  -6  16    7.40   33.90
  -2   6 -16  -30.90   27.90
   0   0  17    0.30    8.50
   0   0  17   -5.40   10.00
   0   0  17    6.80    7.80
   0   0 -17   -2.00    6.50
   0   0 -17   -2.10   10.30
   0   0  17    5.40    7.70
   0   0  17    5.00    7.40
   0   0  17   10.70    8.90
   0   0 -17   21.50   10.60
   0   0 -17   -1.20    8.20
   0   0  17   19.00   15.90
   0   0  17    3.20    9.40
   0   0 -17   -1.70    7.30
   0   0 -17    2.60    8.30
   1   0  17   22.80   12.70
   1   0  17    1.90    8.80
   1   0  17    3.90   14.30
   1   0  17    6.10   10.40
   1   0  17   13.80   10.60
   1   0 -17   14.30    9.70
  -1   0  17   -9.50    8.00
  -1   0  17   10.60   15.40
  -1   0  17  -10.60    8.30
   1   0  17   18.70    8.50
  -1   0  17   14.90   10.20
   1   0  17   30.00   12.70
  -1   0  17   16.50   11.70
  -1   0  17   37.30   15.20
   1   0 -17   16.10   10.90
   1   0 -17   21.10    8.20
  -1   0 -17    8.40    9.20
   1   0  17   10.90   10.50
   1   0 -17   -8.30    8.20
  -1   0 -17   26.30   14.20
   1   0 -17    2.30    9.90
  -1   0  17   19.40   10.00
  -1   0  17    7.40    6.00
  -1   0 -17   16.80   10.00
   1   0 -17    7.50    8.70
  -1   0  17   17.20    9.50
  -1   0 -17    9.30    9.80
  -1   0 -17   12.30    7.30
  -2   0 -17   48.20   14.10
   2   0  17   16.60   10.10
   2   0  17   52.19   10.20
  -2   0  17   29.90   11.10
   2   0 -17   36.90   15.00
  -2   0  17   23.40   15.40
   2   0 -17   41.80   11.40
   2   0 -17   18.60   10.50
  -2   0  17   26.70   17.00
  -2   0 -17   25.00    8.20
  -2   0  17   28.70   18.70
   2   0  17   13.60   14.80
   2   0 -17   24.20   12.40
   2   0 -17   23.90   10.00
   2   0  17   32.20   15.20
  -2   0 -17    3.20   10.30
  -2   0 -17   61.49   18.20
   2   0 -17   30.20   14.30
  -2   0 -17   21.00   10.60
   2   0  17   27.20   15.50
  -3   0  17    6.30   16.20
   3   0 -17   -2.60   14.10
  -3   0  17   -4.00   21.80
   3   0  17   17.60   16.30
  -3   0 -17   14.30   10.20
  -3   0  17   20.40   23.90
   3   0  17   -3.60   10.30
   3   0  17   -2.80    7.80
   3   0 -17    9.20   10.90
  -3   0 -17  -14.30   21.20
   3   0 -17    1.40   17.70
   3   0 -17  -10.20   11.70
   3   0 -17  -20.40   16.70
   3   0 -17   -0.20   13.10
  -4   0 -17  181.78   31.20
   4   0 -17  158.68   20.60
  -4   0  17  216.18   39.80
   4   0 -17  193.08   23.10
   4   0 -17  183.78   29.30
  -4   0  17  212.68   43.70
   4   0 -17  206.68   38.60
  -4   0 -17  246.78   45.30
   4   0  17  155.48   33.90
  -4   0  17  232.98   33.10
   4   0  17  189.08   24.40
   4   0  17  205.78   40.60
   0  -1  17   51.79   12.50
   0  -1  17   58.49   12.90
   0   1 -17   48.40   12.00
   0   1  17   63.19   10.80
   0  -1  17   87.89   15.70
   0  -1  17   53.29   13.50
   0  -1 -17   56.09   12.70
   0   1  17   46.60   13.80
   0   1  17   65.59   10.60
   0  -1 -17   81.49   14.90
   0   1 -17   57.89   14.70
   0  -1  17   38.40   14.20
   0   1  17   71.59   13.90
   0   1  17   47.00   13.10
   0   1  17   55.89   15.20
   0  -1  17   47.80   17.40
   0  -1  17   48.10   13.70
   0   1 -17   57.19   13.50
   0  -1 -17   70.59   14.00
   0   1  17   72.39   13.50
   0   1  17   50.69   14.60
   0  -1 -17   60.09   12.40
   0   1 -17   75.09   14.20
   0  -1 -17   37.20   10.30
   0   1 -17   53.59   12.40
   0   1 -17   59.29   14.90
   0  -1 -17   52.39   13.30
   0  -1  17   72.99   13.80
  -1  -1 -17   40.80   15.60
  -1   1  17   23.40    9.00
  -1   1  17   28.30   11.80
   1   1 -17   41.60   12.10
   1  -1  17   60.29   12.00
  -1   1  17   40.40    7.30
   1   1 -17   40.70   10.30
  -1   1  17   18.70   11.70
  -1  -1 -17   20.40    9.90
   1  -1  17   34.10   15.10
  -1  -1 -17   58.69   15.40
   1  -1  17   48.90   14.50
   1   1 -17   57.09   15.40
  -1  -1 -17   33.80   11.00
   1   1 -17   18.90   10.40
   1  -1  17   25.50   16.90
   1  -1  17   42.20   13.50
  -1   1  17   19.60   12.80
   1   1 -17   27.40   10.80
   1   1 -17   45.10   13.90
   1   1 -17   60.09   14.10
  -1  -1 -17   43.70    9.40
   1  -1  17   42.10   10.30
   1  -1  17   37.20    8.20
  -1   1  17   22.30   13.70
   1  -1  17   31.40   13.70
   1   1 -17   48.90   13.90
  -1  -1  17   24.90   11.00
   1  -1 -17   37.50   11.20
  -1  -1  17   37.90   12.80
   1   1  17   33.50   13.80
  -1  -1  17   33.40    7.70
   1  -1 -17   61.59   11.10
  -1   1 -17   38.40   12.00
  -1   1 -17   30.00    9.10
   1  -1 -17   54.49   15.20
   1   1  17   34.60   11.60
  -1  -1  17   19.00   15.60
   1   1  17   25.30   10.60
   1   1  17   38.60   15.90
   1   1  17   62.19   15.70
   1   1  17   17.80   13.10
  -1   1 -17   25.70   15.30
  -1  -1  17   18.00   13.50
   1  -1 -17   36.00   12.50
  -1  -1  17   36.00   12.50
  -1  -1  17   55.69   13.90
  -1  -1  17   40.00   14.70
  -1   1 -17   37.20   10.40
   1  -1 -17   61.69   16.80
  -1   1 -17   17.20   15.80
  -1   1 -17   34.20   10.90
   1  -1 -17   27.10   11.00
   1  -1 -17   43.60   11.00
   1   1  17   38.60   13.30
   1   1  17   33.20   11.30
  -1  -1  17   55.49   15.30
  -1   1 -17   23.50   13.40
  -2  -1 -17   16.40   12.80
   2  -1  17   42.80   13.90
  -2   1  17    6.40   18.10
   2  -1  17    5.90   10.70
  -2  -1 -17    6.20   10.10
  -2   1  17   19.20    9.30
   2  -1  17   33.00   17.50
   2   1 -17   13.90   11.70
  -2  -1 -17   15.80   11.00
   2   1 -17   30.50   12.60
   2   1 -17   28.00   12.20
  -2  -1 -17   49.10   17.40
  -2   1  17   27.50   15.00
   2  -1  17   13.40    8.30
  -2   1  17   32.60   15.20
   2   1 -17    6.80    7.60
  -2  -1 -17   12.70    5.80
   2  -1  17   17.00   18.30
   2   1 -17   13.60   14.60
   2   1 -17   14.00   11.30
  -2  -1 -17   21.90    9.30
   2  -1 -17   23.50   10.70
   2  -1 -17   12.10   10.20
   2   1  17   41.20   15.30
  -2  -1  17   12.30   12.60
  -2   1 -17   14.20   10.90
   2   1  17    9.30   14.30
  -2   1 -17   18.90   14.90
  -2  -1  17   20.00   14.60
   2  -1 -17   29.30   14.20
   2  -1 -17   39.10   11.90
  -2  -1  17   24.30   18.20
  -2  -1  17   19.60    9.20
  -2   1 -17   20.50   15.80
  -2   1 -17   19.60   11.10
   2   1  17   27.30   17.50
   2  -1 -17   17.40    8.30
   2  -1 -17   39.00   13.70
   2   1  17   26.40   12.00
  -2   1 -17   23.40   12.20
   3   1 -17  281.57   35.90
   3  -1  17  260.77   31.70
  -3   1  17  296.37   39.80
   3   1 -17  348.17   27.20
   3   1 -17  353.86   38.10
  -3  -1 -17  321.57   38.70
   3  -1  17  325.87   41.40
   3   1 -17  284.97   40.70
   3  -1  17  279.57   25.60
   3   1 -17  326.67   27.80
   3   1 -17  283.27   26.60
   3  -1  17  345.17   19.70
   3  -1  17  292.97   34.20
   3  -1  17  230.58   38.10
  -3   1  17  308.57   47.10
  -3  -1 -17  324.47   21.60
  -3  -1 -17  271.97   27.20
   3   1  17  350.66   39.30
  -3  -1  17  309.17   45.70
   3  -1 -17  364.66   22.80
   3   1  17  278.07   38.20
  -3   1 -17  317.27   21.90
   3   1  17  341.47   29.60
   3  -1 -17  325.07   25.10
  -3  -1  17  394.36   37.20
  -3   1 -17  367.96   39.50
   3  -1 -17  323.37   40.00
  -3  -1  17  354.66   43.30
   3   1  17  355.56   36.90
  -3   1 -17  382.06   37.40
   3  -1 -17  347.07   25.20
   3  -1 -17  352.36   27.80
   3  -1 -17  402.16   35.20
   4  -1  17   12.90   28.10
  -4   1  17  -25.20   39.20
  -4  -1 -17   50.79   32.50
   4   1 -17    1.50   16.40
   4   1 -17   57.79   27.30
   4   1 -17   11.30   13.30
   4  -1  17   12.20   30.00
  -4   1  17   39.30   29.30
   4  -1 -17    5.70   18.60
  -4  -1  17   20.30   30.80
  -4   1 -17   52.79   31.70
   4   1  17   -8.00   28.20
   4  -1 -17    1.60   22.00
   4  -1 -17   32.30   13.90
   4   1  17   22.90   16.50
  -4  -1  17   39.10   37.00
   4  -1 -17  -29.00   29.00
  -4  -1  17  -11.00   33.70
   4   1  17    7.00   28.60
   0  -2  17    0.70   11.00
   0   2 -17   -1.10    9.00
   0   2 -17   -6.70    7.70
   0   2  17   23.90   15.30
   0   2  17    5.10   13.40
   0   2  17   -9.40    7.40
   0   2 -17  -12.60   12.50
   0   2 -17   -2.80   10.80
   0  -2  17   10.20   11.10
   0  -2 -17  -18.60   11.00
   0   2 -17   -4.80   14.40
   0   2 -17    6.20    9.40
   0  -2  17    6.20    8.90
   0  -2 -17   -1.40    9.50
   0  -2 -17   25.10   15.90
   0   2  17   12.50    9.50
   0  -2 -17   -0.10    7.50
   0  -2  17   -2.10   13.20
   0  -2 -17  -12.10    8.00
   0   2  17    1.50    7.30
   0  -2  17   25.40   16.10
   0   2 -17    3.90   11.30
   0  -2  17   26.10   12.80
   0  -2  17  -25.80   12.80
   0  -2 -17   -4.70   10.90
  -1   2  17  376.66   29.60
   1  -2  17  341.67   26.50
  -1   2  17  329.17   27.40
   1   2 -17  349.07   25.30
   1  -2  17  337.57   35.60
   1  -2  17  349.07   27.50
   1   2 -17  336.77   27.20
  -1  -2 -17  381.36   30.60
  -1   2  17  302.77   16.70
  -1  -2 -17  339.07   24.80
  -1  -2 -17  320.47   21.00
  -1  -2 -17  317.17   20.90
  -1   2  17  341.47   18.80
   1   2 -17  375.56   31.50
  -1   2  17  366.26   25.70
   1  -2  17  347.77   20.20
   1   2 -17  376.96   32.30
   1   2 -17  277.47   28.20
   1  -2  17  379.66   30.20
   1   2 -17  344.47   26.00
  -1  -2 -17  302.37   33.40
  -1  -2 -17  324.17   24.80
  -1   2 -17  361.46   26.30
  -1   2 -17  334.17   25.30
   1  -2 -17  350.66   30.00
   1   2  17  347.57   27.70
   1  -2 -17  344.87   24.90
   1  -2 -17  333.87   26.60
  -1  -2  17  334.97   27.20
  -1   2 -17  310.57   30.60
  -1  -2  17  359.66   33.50
   1   2  17  366.46   36.00
  -1   2 -17  376.46   22.40
   1   2  17  339.27   26.60
   1  -2 -17  313.27   23.90
  -1  -2  17  314.17   27.40
  -1   2 -17  299.17   25.30
  -1  -2  17  335.27   21.60
  -1  -2  17  332.97   28.50
   1  -2 -17  342.37   31.20
   1  -2 -17  307.47   32.70
   1   2  17  340.87   27.70
   1  -2 -17  354.96   21.80
  -1  -2  17  372.76   25.20
  -2  -2 -17   91.69    6.30
   2  -2  17   82.99   24.60
  -2   2  17   84.89   17.90
   2   2 -17   87.79   15.00
  -2  -2 -17   87.39   16.80
   2  -2  17   54.39   21.10
  -2  -2 -17   55.89   14.60
   2   2 -17   76.29   17.00
  -2  -2 -17   93.89   17.40
  -2   2  17   84.19   13.00
  -2   2  17   78.79   18.20
  -2  -2 -17   82.49   10.50
   2   2 -17   71.99   17.20
   2  -2  17   98.09   19.90
  -2   2  17  111.69   25.30
   2   2 -17   72.99   15.20
  -2  -2 -17  118.29   32.30
   2  -2  17   52.49   17.00
   2  -2 -17   83.49   18.00
  -2  -2  17  109.89   25.30
   2  -2 -17   80.59   15.00
  -2  -2  17   56.59   20.60
  -2  -2  17   90.39   12.50
  -2   2 -17   74.39   18.50
  -2  -2  17   73.49   13.10
  -2  -2  17   60.39   19.00
  -2   2 -17   59.29   14.80
  -2   2 -17   66.29   15.20
   2  -2 -17   92.79   21.50
   2  -2 -17   59.09   14.10
   2  -2 -17   61.29   14.10
  -2   2 -17   84.59   21.10
  -2   2 -17  100.79   22.10
   2   2  17   70.09   16.60
   2   2  17   76.09   21.80
  -2  -2  17   80.59   12.30
   2   2  17   92.99   22.10
   2  -2 -17  116.19   13.50
   2   2  17  109.99   28.30
  -3  -2 -17    2.40   20.90
   3   2 -17   21.40   16.20
   3  -2  17   54.79   22.90
   3  -2  17   57.89   19.10
   3   2 -17   48.60   23.10
  -3   2  17   40.70   26.80
  -3  -2 -17   44.20   12.90
   3   2 -17   28.00   15.90
  -3   2  17    6.60   20.90
   3  -2  17   37.90   19.90
   3  -2 -17   47.30   17.60
   3  -2 -17   35.60   14.60
  -3   2 -17   27.90   25.80
  -3  -2  17   44.90   26.20
  -3  -2  17   26.80   22.30
   3   2  17   22.10   27.30
  -3  -2  17   49.20   27.40
  -3   2 -17   62.69   26.20
   3  -2 -17   18.50   23.40
  -3   2 -17   39.30   13.80
   3   2  17   45.70   22.90
   3  -2 -17   65.99   19.00
   3  -2 -17   30.60   15.00
   4   2 -17   99.29   21.90
  -4   2  17  137.79   33.60
   4  -2  17   85.99   29.50
   4  -2  17   84.79   35.60
   4   2 -17   41.90   25.30
  -4  -2 -17   87.09   34.70
  -4   2  17   29.20   43.30
  -4  -2  17  190.08   44.30
  -4   2 -17  133.29   40.10
  -4  -2  17   60.59   35.40
  -4   2 -17  117.89   38.00
   4   2  17   74.39   33.90
  -4  -2  17   86.39   35.80
   4  -2 -17  116.19   21.60
   4   2  17   21.30   35.20
   4  -2 -17  115.19   32.90
   0   3  17   52.59   22.10
   0   3 -17   43.00   12.70
   0  -3 -17   25.90   12.50
   0  -3 -17   54.99   14.90
   0  -3 -17   51.79   14.80
   0  -3  17   77.49   16.60
   0   3  17   26.50   11.40
   0   3  17   18.80   13.80
   0  -3 -17   74.99   20.20
   0  -3  17   53.29   15.40
   0   3 -17   51.99   12.20
   0  -3 -17   61.19   13.60
   0   3 -17   29.60   14.90
   0  -3  17   52.09   13.80
   0   3 -17   54.79   21.00
   0  -3  17   70.89   16.60
   0   3  17   49.10   12.80
   0  -3  17   50.79   23.20
   0  -3 -17   48.20   15.10
   0   3 -17   36.80   12.50
   0   3 -17   39.30   11.00
  -1   3  17   60.49    9.50
  -1   3  17   76.69   12.50
   1   3 -17   78.79   21.70
   1   3 -17   53.19   18.90
  -1   3  17   54.69   19.30
   1  -3  17   89.79   18.60
   1  -3  17   90.49   18.10
   1  -3  17   94.19   23.20
   1   3 -17   52.99   15.70
  -1  -3 -17   80.49   20.90
   1   3 -17  105.49   20.90
  -1  -3 -17   72.49   13.20
   1   3 -17   58.89   20.30
  -1  -3 -17   59.19   16.10
  -1  -3 -17   85.89   16.70
  -1  -3 -17   72.29   16.20
  -1   3  17   82.19   16.30
   1   3 -17   70.79   10.30
  -1  -3 -17   62.89   11.60
   1   3 -17   72.39   17.90
   1  -3 -17   71.19   21.70
   1   3  17   95.59   23.60
  -1   3 -17  109.49   17.70
  -1   3 -17   68.79   17.60
   1   3  17   72.19   18.20
   1  -3 -17   62.09   13.80
   1  -3 -17   47.80   14.90
   1   3  17   70.09   16.10
  -1  -3  17   78.89   15.70
   1  -3 -17   55.09   18.90
   1   3  17   66.39   15.00
  -1   3 -17   80.19   20.90
   1  -3 -17   54.49   16.40
  -1  -3  17   71.09   19.70
  -1   3 -17   57.49   15.70
  -1  -3  17   70.19   20.30
  -1   3 -17   89.19   17.60
   2   3 -17  169.98   26.00
  -2   3  17  164.08   15.00
  -2   3  17  158.88   25.10
  -2  -3 -17  129.19   26.10
   2  -3  17  129.19   28.90
  -2   3  17   93.09   25.90
  -2   3  17  193.68   28.20
  -2  -3 -17  162.38   26.10
   2   3 -17  122.79   21.40
  -2   3  17  143.79   19.60
  -2  -3 -17  126.39   19.70
   2   3 -17  147.49   16.10
   2   3 -17  138.19   24.70
   2   3 -17  140.99   23.10
  -2  -3 -17  140.19    8.80
   2  -3  17  129.79   29.60
  -2  -3 -17  147.29   24.30
  -2  -3 -17  168.38    9.70
   2  -3  17  209.68   29.20
  -2  -3  17  127.69   30.30
  -2   3 -17  246.88   33.60
   2   3  17  156.28   29.30
  -2  -3  17  157.38   25.30
  -2   3 -17  178.38   25.00
  -2   3 -17  187.08   30.60
  -2  -3  17  144.39   19.00
  -2   3 -17  140.99   28.60
   2  -3 -17  156.58   24.50
  -2   3 -17  155.58   25.60
   2  -3 -17  175.98   31.40
  -2  -3  17  171.78   22.10
  -2  -3  17  164.68   26.40
  -2  -3  17  156.08   21.70
   2  -3 -17  167.08   26.20
   2   3  17  108.19   28.90
   2  -3 -17  135.79   24.00
  -2  -3  17  124.29   24.80
   3  -3  17  144.29   34.10
  -3   3  17  121.89   37.20
  -3  -3 -17  162.28   24.40
  -3  -3 -17   99.59   27.60
  -3  -3 -17  105.69   18.40
  -3   3  17  120.89   25.40
  -3   3  17  138.29   27.60
   3  -3  17  125.29   27.00
  -3  -3 -17  160.68   28.80
   3   3 -17  133.69   24.90
   3   3 -17  118.79   27.00
  -3  -3  17   96.79   30.90
   3   3  17   92.89   30.80
  -3   3 -17  122.89   18.70
  -3  -3  17   86.19   34.50
   3   3  17   67.19   31.20
   3  -3 -17  152.98   32.70
   3  -3 -17  190.98   29.80
  -3   3 -17  153.68   35.30
  -3  -3  17  195.08   35.80
  -3   3 -17  135.39   33.60
   3  -3 -17  141.09   24.00
   3  -3 -17  122.89   25.10
   4   3 -17   10.80   26.60
  -4   3  17  -21.90   45.00
   4   3 -17   99.49   25.00
   4  -3  17   42.40   30.20
  -4  -3 -17   75.99   39.00
   4  -3  17    0.40   37.50
   4  -3 -17   32.80   34.40
  -4  -3  17   89.59   41.90
   4  -3 -17   10.50   20.80
   4   3  17   14.50   33.40
  -4  -3  17   69.89   41.90
   4   3  17   81.09   42.90
  -4   3 -17   88.49   40.60
  -4   3 -17   68.49   39.80
   0  -4 -17   94.29   20.00
   0  -4  17  136.89   25.30
   0  -4 -17  120.39   16.60
   0   4 -17  108.49   16.70
   0  -4 -17  105.49   24.70
   0   4 -17   96.19   22.10
   0  -4  17   88.09   20.40
   0   4  17  126.19   18.90
   0  -4 -17  104.99   23.50
   0   4  17  117.99   21.40
   0   4 -17  103.49   20.70
   0  -4  17  135.49   24.00
   0   4 -17  124.59   28.50
   0  -4 -17  125.49   19.20
   0  -4 -17  135.19   21.60
   0   4 -17  113.39   23.00
   0   4 -17  115.99   18.50
  -1  -4 -17   30.40   23.90
  -1  -4 -17   15.80   19.10
  -1   4  17   53.29   20.70
   1  -4  17   59.99   20.30
  -1  -4 -17   52.59   15.30
  -1  -4 -17   28.30   17.40
  -1   4  17   49.60   16.40
   1   4 -17   31.10    7.00
   1   4 -17   16.70   15.40
   1   4 -17   23.30   25.80
   1  -4  17   -1.00   27.50
  -1  -4 -17   30.00   15.40
   1   4 -17   75.89   27.20
  -1   4  17   39.00    9.00
  -1  -4 -17   43.10   18.40
   1  -4  17   22.00   18.10
   1   4 -17   35.50   16.60
  -1   4 -17   19.80   12.90
  -1   4 -17   32.40   23.20
  -1  -4  17   28.30   17.20
   1  -4 -17   27.80   17.60
   1  -4 -17   51.59   35.30
  -1   4 -17   70.99   21.80
   1  -4 -17    6.20   14.30
  -1  -4  17   39.60   16.90
   1   4  17   21.30   14.90
  -1   4 -17   21.20   17.60
   1   4  17   50.79   29.80
   1   4  17   25.20   19.30
  -1  -4  17   22.80   21.70
   2   4 -17   90.29   22.40
  -2  -4 -17  133.19   28.30
   2  -4  17  138.39   30.30
  -2  -4 -17  106.99   19.80
  -2   4  17  131.99   28.60
  -2  -4 -17   88.99   21.80
   2   4 -17   85.19   21.10
  -2   4  17  188.38   30.80
  -2   4  17  137.39   18.40
   2   4 -17  108.99   22.00
  -2  -4 -17  147.89   28.50
   2  -4  17  102.19   25.80
   2  -4 -17   90.89   23.80
  -2   4 -17  141.69   28.60
   2  -4 -17   87.59   20.30
  -2  -4  17   83.89   19.60
  -2   4 -17  111.99   21.90
   2   4  17   97.69   24.10
  -2   4 -17   99.49   29.90
  -2   4 -17  134.39   26.10
  -2  -4  17  104.89   28.00
  -2  -4  17  115.99   23.30
   2  -4 -17  117.49   30.20
  -2   4 -17  110.59   27.70
  -2  -4  17  108.29   24.00
   3  -4  17   38.20   28.90
  -3  -4 -17   80.39   29.30
  -3  -4 -17  -12.60   28.70
   3   4 -17   -6.10   21.60
  -3   4  17  -38.40   33.00
   3  -4  17   50.39   24.60
   3   4 -17    0.60   22.30
  -3   4  17   39.80   23.90
  -3   4 -17   28.80   33.30
   3  -4 -17   37.20   21.10
  -3   4 -17   29.80   30.10
   3  -4 -17  -11.30   26.20
  -3  -4  17   -0.70   32.00
   3  -4 -17   -2.60   19.50
  -3  -4  17   95.89   32.80
   3   4  17   12.30   28.20
   0   5 -17  144.79   28.20
   0  -5 -17  113.29   18.90
   0  -5  17  137.99   25.40
   0  -5 -17  119.49   24.70
   0   5  17  141.69   24.70
   0   5  17  132.89   22.80
   0   5 -17  118.19   24.70
   0   5 -17  140.69   31.30
   0  -5 -17  170.48   28.10
   0   5 -17  145.49   21.30
   0  -5  17  148.19   27.80
   0  -5 -17  131.49   34.90
  -1  -5 -17   51.19   21.10
  -1   5  17   19.50   17.40
  -1  -5 -17   68.49   30.20
   1  -5  17   -1.80   20.30
   1  -5  17   29.40   24.00
   1  -5  17   35.80   21.50
   1   5 -17   10.00   18.90
  -1  -5 -17   35.50   18.50
  -1  -5 -17   21.60   21.20
  -1  -5 -17   30.00   20.80
   1   5 -17   51.49   23.90
   1   5 -17   50.69   20.80
  -1   5 -17   38.00   25.60
  -1  -5  17   52.99   20.40
  -1  -5  17    9.30   24.30
   1   5  17   49.60   37.50
   1   5  17   94.89   21.40
  -1   5 -17   91.19   23.50
  -1   5 -17   68.49   17.30
  -1   5 -17   60.39   22.60
  -1   5 -17   58.49   22.00
   1  -5 -17   68.09   29.30
   1  -5 -17   57.79   20.50
  -1  -5  17   39.30   19.80
  -2  -5 -17   98.29   22.10
  -2  -5 -17   91.59   29.60
   2   5 -17   40.00   24.60
   2  -5  17   95.89   30.30
   2  -5  17  107.59   29.20
  -2   5  17   61.79   24.80
   2   5 -17   55.79   26.00
   2   5 -17   74.69   24.80
  -2   5  17   35.40   32.90
  -2  -5 -17   31.90   23.90
   2   5  17  122.49   32.20
   2  -5 -17  110.39   26.00
   2  -5 -17   79.39   29.40
  -2  -5  17  115.99   23.10
  -2   5 -17   53.89   25.40
  -2  -5  17   62.69   32.10
   2  -5 -17   93.99   28.50
  -2   5 -17   85.99   26.00
  -2   5 -17   87.19   29.30
  -3  -5 -17  259.97   40.10
  -3   5  17  281.27   53.29
   3   5 -17  151.08   33.70
  -3   5  17  218.88   46.20
  -3  -5 -17  240.68   44.60
   3  -5  17  182.68   46.50
   3   5 -17  185.18   33.60
  -3   5  17  208.28   36.80
   3  -5  17  275.17   40.60
  -3  -5  17  261.27   50.89
  -3   5 -17  199.38   45.30
   3   5  17  192.08   46.60
  -3   5 -17  205.48   46.00
   3  -5 -17  190.68   42.60
   3  -5 -17  215.08   61.69
   3  -5 -17  244.78   36.20
  -3  -5  17  241.28   45.20
   0  -6  17  -40.30   35.60
   0   6  17   16.30   22.20
   0   6 -17   -5.30   26.40
   0  -6  17   63.59   29.70
   0  -6 -17   -7.80   25.40
   0  -6  17   75.79   28.00
   0   6 -17  -10.30   30.30
   0   6 -17    3.00   29.20
   0  -6 -17   16.30   22.50
   0  -6 -17   53.09   36.90
   0  -6  17   69.19   29.10
   1  -6  17  180.78   34.20
   1   6 -17  141.09   31.80
   1  -6  17  164.58   30.60
   1   6 -17  132.69   34.20
  -1  -6 -17  144.79   28.20
  -1   6  17   97.79   28.50
  -1  -6 -17  148.59   32.70
  -1  -6 -17  205.68   32.50
   1  -6  17  189.98   34.10
  -1  -6  17  146.49   31.60
  -1   6 -17  190.08   40.30
  -1  -6  17  184.38   39.30
   1  -6 -17  155.88   40.30
  -1   6 -17  117.49   35.30
   1   6  17  267.47   45.30
  -1   6 -17  260.57   65.99
  -1   6 -17  125.89   35.30
   1  -6 -17  147.39   31.10
  -1  -6  17  150.98   30.00
   1   6  17  215.98   37.50
  -1  -6  17  156.48   37.00
   2  -6  17   27.70   33.10
   2   6 -17  -47.60   32.10
  -2   6  17  -40.40   39.60
  -2  -6 -17   44.00   29.20
  -2   6  17   15.50   36.40
   2   6 -17   59.89   30.80
  -2   6  17  -30.80   27.20
  -2  -6 -17    6.70   26.10
   2  -6  17  -22.90   36.00
  -2   6 -17   20.40   31.70
  -2  -6  17   16.90   34.70
   2   6  17  -16.40   36.60
   2  -6 -17   48.30   29.90
  -2  -6  17    4.30   38.10
  -2   6 -17   21.40   29.50
   2  -6 -17   81.79   35.90
  -2   6 -17   -8.00   34.70
   0   0  18  187.68   19.80
   0   0  18  178.58   19.60
   0   0  18  194.88   27.70
   0   0 -18  189.88   19.30
   0   0 -18  213.48   20.50
   0   0 -18  132.89   17.00
   0   0  18  202.58   20.10
   0   0 -18  154.18   21.90
   0   0  18  165.28   20.40
   0   0 -18  206.18   23.60
   0   0  18  175.08   19.40
   0   0  18  188.68   19.60
   0   0  18  190.88   22.10
   0   0 -18  178.98   18.60
  -1   0 -18 2208.68   79.69
   1   0  18 2486.15   78.39
   1   0  18 2453.85   83.99
  -1   0  18 2340.27   82.89
   1   0  18 2378.56   76.39
   1   0  18 2491.05   74.69
   1   0 -18 2474.95   80.29
   1   0  18 2247.08   75.69
  -1   0  18 2417.46   84.29
  -1   0  18 2454.45   72.49
  -1   0 -18 2388.36   77.49
   1   0 -18 2423.96   81.59
  -1   0  18 2408.06   64.89
   1   0 -18 2526.65   75.39
  -1   0 -18 2488.85   83.39
  -1   0 -18 2402.76   75.89
   1   0  18 2489.45   83.09
  -1   0  18 2359.36   84.79
  -1   0 -18 2379.96   71.89
   1   0  18 2439.36   77.99
  -1   0  18 2411.56   73.29
   1   0 -18 2361.86   76.29
   1   0 -18 2448.85   73.09
  -1   0  18 2330.57   79.39
  -1   0  18 2391.26   72.29
   1   0 -18 2395.46   80.29
  -2   0  18  227.58   29.70
   2   0 -18  215.28   27.10
   2   0  18  207.68   29.70
   2   0  18  218.18   21.30
  -2   0  18  241.98   21.20
  -2   0 -18  179.58   28.60
   2   0  18  246.48   19.60
  -2   0 -18  212.78   18.60
   2   0  18  212.98   24.60
   2   0 -18  214.88   24.50
   2   0  18  215.38   32.70
  -2   0 -18  240.98   22.10
  -2   0 -18  248.98   27.90
   2   0 -18  215.88   28.80
  -2   0  18  270.77   36.40
   2   0 -18  204.68   22.20
  -2   0  18  231.38   28.40
   2   0 -18  251.87   21.50
  -2   0  18  242.78   17.80
  -2   0 -18  237.08   23.40
   2   0 -18  224.38   21.60
   3   0 -18  425.96   41.20
  -3   0 -18  426.66   34.80
   3   0  18  381.16   53.19
   3   0 -18  361.36   39.20
  -3   0  18  311.47   32.60
   3   0  18  369.56   26.40
  -3   0 -18  405.96   23.90
   3   0 -18  392.56   30.50
  -3   0 -18  354.16   38.90
   3   0 -18  351.36   28.50
   3   0  18  346.67   39.90
  -3   0  18  301.67   46.60
   3   0 -18  366.06   27.70
   3   0  18  341.97   37.20
  -3   0  18  430.86   46.30
   3   0 -18  390.66   30.20
   4   0  18   95.19   17.00
   4   0  18  103.79   32.10
  -4   0  18   60.69   31.60
   4   0 -18  122.39   35.40
   4   0 -18   68.09   28.00
  -4   0  18  101.59   42.00
   4   0 -18   79.19   29.50
  -4   0 -18  129.89   37.00
  -4   0 -18  141.89   30.80
   4   0 -18  110.89   16.40
   4   0  18  135.59   38.20
   0   1  18 1313.47   56.59
   0   1  18 1331.27   54.39
   0   1  18 1392.66   44.60
   0   1  18 1388.06   51.99
   0   1 -18 1392.16   52.09
   0   1 -18 1473.95   53.69
   0  -1  18 1312.17   56.99
   0  -1  18 1387.96   50.39
   0  -1  18 1429.36   51.59
   0  -1 -18 1423.86   52.99
   0  -1 -18 1406.56   51.79
   0  -1  18 1406.66   54.99
   0   1  18 1352.56   54.19
   0   1  18 1404.96   51.79
   0   1  18 1362.96   48.40
   0  -1 -18 1373.16   50.69
   0  -1  18 1381.76   55.39
   0  -1  18 1343.07   52.09
   0  -1  18 1316.17   51.89
   0  -1  18 1364.86   51.39
   0   1 -18 1389.36   52.79
   0   1  18 1310.37   50.39
   0   1  18 1474.25   53.99
   0   1 -18 1399.86   54.49
   0  -1 -18 1402.76   52.49
   0  -1 -18 1400.96   56.59
   0  -1 -18 1412.46   52.69
   0   1 -18 1393.96   57.39
   1  -1  18  356.76   24.40
  -1   1  18  359.56   31.10
   1   1 -18  365.36   28.60
  -1   1  18  397.96   18.50
  -1   1  18  310.97   26.90
  -1  -1 -18  346.57   21.70
   1   1 -18  384.06   26.70
  -1  -1 -18  335.47   30.40
   1  -1  18  387.76   27.40
  -1  -1 -18  361.56   23.90
  -1   1  18  362.36   31.30
   1   1 -18  355.16   25.10
   1  -1  18  336.17   22.10
   1   1 -18  403.56   29.40
  -1  -1 -18  327.27   32.00
  -1  -1 -18  339.57   25.30
  -1   1  18  382.86   25.20
   1   1 -18  383.26   30.10
   1  -1  18  386.16   25.70
   1  -1  18  359.66   28.40
   1   1 -18  394.76   24.60
  -1   1  18  351.46   12.70
  -1   1  18  351.16   21.10
   1  -1  18  326.77   32.10
   1   1 -18  345.27   27.70
   1   1 -18  358.46   25.40
   1  -1 -18  368.16   23.40
   1   1  18  386.16   26.50
   1  -1 -18  394.36   27.50
   1  -1 -18  390.46   25.60
  -1  -1  18  373.26   27.60
   1   1  18  380.56   30.70
  -1  -1  18  350.26   19.10
   1  -1 -18  393.36   25.30
   1   1  18  363.16   27.30
   1   1  18  396.46   30.50
  -1  -1  18  337.67   30.90
  -1   1 -18  355.76   25.70
  -1   1 -18  336.47   31.80
   1  -1 -18  345.47   28.80
  -1  -1  18  422.96   33.00
  -1  -1  18  364.66   24.90
   1  -1 -18  329.17   34.40
   1  -1 -18  354.76   29.60
  -1   1 -18  366.66   26.10
   1   1  18  297.07   30.80
  -1   1 -18  369.16   33.50
  -1   1 -18  336.57   22.00
  -1  -1  18  364.16   24.80
  -1  -1  18  368.76   25.60
   1   1  18  360.06   23.70
  -1  -1  18  352.46   30.30
  -1   1 -18  346.47   24.10
  -2   1  18  468.05   35.70
   2   1 -18  445.66   34.50
  -2  -1 -18  445.96   35.00
   2   1 -18  386.56   27.80
   2  -1  18  435.66   39.70
  -2  -1 -18  400.86   24.50
  -2  -1 -18  409.36   27.40
   2   1 -18  445.86   37.00
  -2   1  18  329.07   38.90
  -2  -1 -18  429.46   18.50
   2   1 -18  393.16   29.10
   2   1 -18  394.76   20.10
  -2   1  18  412.76   32.40
   2   1 -18  427.06   28.20
   2  -1  18  376.46   24.20
   2  -1  18  421.96   27.40
   2  -1  18  433.56   31.80
  -2   1  18  407.06   22.20
  -2  -1 -18  392.86   27.50
   2   1 -18  397.46   30.90
   2  -1  18  390.96   36.00
  -2  -1 -18  465.65   32.40
  -2   1 -18  419.46   28.70
   2   1  18  448.46   34.80
  -2  -1  18  404.96   28.90
   2   1  18  416.16   39.30
   2  -1 -18  505.55   34.90
  -2   1 -18  431.36   26.70
   2  -1 -18  437.96   37.00
  -2   1 -18  413.26   32.30
   2  -1 -18  360.56   28.50
   2  -1 -18  422.46   26.70
   2  -1 -18  412.96   26.90
  -2   1 -18  469.05   36.30
  -2  -1  18  410.56   23.00
   2   1  18  461.25   29.40
   2   1  18  378.96   36.70
  -2  -1  18  338.17   40.80
   2  -1 -18  398.26   24.00
  -2  -1  18  417.36   35.40
   3   1 -18  259.87   26.90
   3   1 -18  279.57   27.40
   3  -1  18  248.18   20.10
   3  -1  18  224.98   33.10
   3   1 -18  265.27   35.50
  -3   1  18  299.37   50.59
  -3   1  18  281.87   39.70
  -3  -1 -18  261.87   21.80
   3  -1  18  242.98   36.40
  -3  -1 -18  265.27   28.10
   3   1 -18  227.68   40.20
   3   1 -18  241.08   26.90
  -3  -1 -18  245.18   34.00
   3  -1 -18  197.38   25.10
   3   1  18  211.98   32.80
   3  -1 -18  276.97   27.60
  -3  -1  18  304.27   40.30
   3  -1 -18  298.77   25.30
   3  -1 -18  225.78   32.90
   3   1  18  253.27   29.40
   3  -1 -18  240.18   35.30
  -3   1 -18  261.07   35.90
  -3  -1  18  256.77   34.20
  -3  -1  18  277.87   46.40
   3   1  18  229.98   36.90
  -3   1 -18  306.67   37.50
  -3   1 -18  225.18   21.70
   4   1 -18  157.18   25.20
   4   1 -18  144.39   20.20
   4  -1  18  186.58   39.50
  -4  -1 -18  138.89   37.40
  -4   1  18  144.49   45.60
   4  -1  18  134.99   35.80
   4   1 -18  256.97   42.10
  -4   1  18  145.09   36.30
  -4   1 -18  116.39   35.70
   4  -1 -18  144.49   36.30
  -4  -1  18  171.78   37.70
  -4   1 -18  156.18   44.70
   4   1  18  231.38   33.60
  -4  -1  18  144.69   39.80
  -4  -1  18   95.39   41.70
   4  -1 -18  142.79   19.90
   4   1  18  190.58   37.80
   0   2 -18    9.50   10.50
   0   2 -18    2.80   15.20
   0   2 -18   -1.70   10.00
   0  -2  18   16.10   12.20
   0   2  18   11.60    9.90
   0  -2 -18   -1.60   14.10
   0  -2  18    6.10   18.10
   0   2  18   35.50   16.20
   0   2 -18   -0.20   10.30
   0  -2 -18   21.40   10.80
   0  -2 -18    1.00    8.50
   0  -2 -18   22.20   11.20
   0  -2  18    9.80   10.40
   0  -2  18   16.60   11.80
   0   2  18   17.10    7.80
   0   2  18   15.20    9.20
   0   2 -18    1.70   11.60
   0  -2 -18    9.60   13.40
  -1  -2 -18  921.81   54.49
  -1  -2 -18  913.41   48.80
   1  -2  18 1035.50   54.09
  -1   2  18  954.60   46.30
   1  -2  18  884.71   43.40
  -1  -2 -18  933.21   42.60
   1   2 -18  970.50   43.90
   1   2 -18  992.40   49.40
   1   2 -18  887.21   45.60
  -1   2  18  817.72   39.10
   1   2 -18  957.30   46.00
   1  -2  18  982.60   48.20
   1  -2  18  974.40   44.30
  -1  -2 -18  948.21   42.10
  -1  -2 -18  971.70   37.40
  -1   2  18  906.01   41.60
  -1   2  18  981.60   34.30
   1   2 -18  925.51   43.00
   1   2 -18 1005.00   48.70
  -1   2  18  988.20   48.70
  -1  -2 -18  941.81   37.60
  -1   2  18  966.90   32.70
  -1   2 -18  970.20   44.10
   1  -2 -18  993.20   44.00
  -1  -2  18  915.51   42.00
  -1  -2  18  968.20   50.29
  -1  -2  18  946.21   45.70
   1  -2 -18  893.21   40.40
  -1  -2  18  960.90   42.00
  -1  -2  18  930.21   44.50
  -1   2 -18  960.90   43.70
  -1   2 -18  918.71   49.50
   1   2  18  972.00   45.30
   1  -2 -18 1013.80   49.10
   1  -2 -18  920.51   50.79
   1  -2 -18 1021.00   38.20
   1   2  18  977.90   45.00
   1   2  18  989.90   43.60
   1  -2 -18  966.30   47.80
  -1   2 -18 1046.20   39.10
  -1   2 -18  925.11   42.30
   1  -2 -18  950.40   45.30
  -1  -2  18  964.90   37.80
   1   2  18  959.80   53.19
   2   2 -18    9.70   11.50
  -2   2  18   -3.70   13.20
  -2  -2 -18   -1.50    6.60
   2   2 -18    1.60   13.70
  -2  -2 -18   -2.20   11.70
   2  -2  18    9.40   19.20
  -2  -2 -18  -14.10   12.80
  -2   2  18    4.40   14.30
   2   2 -18    0.50   11.20
   2  -2  18   22.60   20.80
  -2  -2 -18   18.80   15.50
  -2  -2 -18   -1.40    4.90
  -2  -2 -18   -5.30   15.90
   2  -2  18   -4.80   14.50
   2  -2  18   18.80   15.90
  -2   2  18   12.20   11.20
  -2   2  18    6.60   19.40
   2   2 -18   -7.70   17.30
   2   2  18    3.00   15.50
  -2   2 -18  -25.90   13.90
  -2  -2  18   14.60   20.10
  -2  -2  18    1.10   15.50
  -2  -2  18   -1.10    9.40
   2  -2 -18   -5.40   11.00
   2   2  18  -13.80   20.20
   2  -2 -18   -6.60   13.40
  -2  -2  18    0.10    9.30
  -2  -2  18   21.90   11.40
   2  -2 -18   16.70   20.50
  -2   2 -18   23.60   17.10
   2  -2 -18   20.50    9.30
   2  -2 -18   -6.60   23.80
  -2   2 -18    0.80   16.00
  -2   2 -18   15.00   11.60
  -2   2 -18  -15.60   13.00
  -2  -2  18   15.20   27.50
   2   2  18    0.40   11.00
   2  -2 -18  -12.70   10.40
   2   2  18   -1.00   17.40
   3   2 -18  607.34   37.30
  -3   2  18  619.94   48.90
  -3   2  18  608.94   58.69
  -3  -2 -18  659.33   33.40
   3  -2  18  598.94   43.60
   3  -2  18  724.93   54.89
   3   2 -18  517.75   37.40
  -3   2  18  660.33   49.30
  -3  -2 -18  551.94   48.00
   3   2 -18  629.24   47.10
   3  -2 -18  594.34   38.00
   3   2  18  541.75   48.40
   3   2  18  638.74   39.40
  -3   2 -18  601.64   32.70
   3   2  18  560.64   54.69
   3  -2 -18  650.23   36.80
  -3   2 -18  649.43   50.69
  -3  -2  18  635.44   57.99
   3  -2 -18  576.44   43.00
  -3   2 -18  590.04   51.09
   3  -2 -18  633.04   53.79
   3  -2 -18  608.04   36.30
  -3  -2  18  553.44   45.80
  -3  -2  18  662.33   54.89
   4  -2  18   10.40   31.70
  -4  -2 -18  -57.89   34.30
   4   2 -18   -3.50   25.20
  -4   2  18  -19.20   30.50
   4  -2  18  -37.50   26.20
  -4   2  18  -62.09   40.90
  -4  -2  18   12.50   39.20
   4   2  18   49.70   33.30
  -4  -2  18   42.30   34.90
   4  -2 -18   -0.40   17.70
  -4   2 -18   12.60   35.90
   4   2  18  -40.70   30.50
  -4  -2  18  -10.40   38.20
   4   2  18   -6.20   20.90
   4  -2 -18   -6.30   29.70
   0   3 -18 1272.97   54.69
   0   3  18 1262.57   55.59
   0   3  18 1161.58   48.80
   0  -3 -18 1186.98   50.29
   0  -3 -18 1278.17   52.39
   0   3  18 1251.97   47.40
   0   3 -18 1228.18   45.80
   0   3 -18 1314.57   54.29
   0  -3 -18 1276.27   53.29
   0   3 -18 1274.67   45.20
   0  -3  18 1230.78   49.80
   0  -3 -18 1235.48   51.69
   0  -3 -18 1287.57   54.59
   0  -3  18 1279.07   52.19
   0  -3  18 1087.59   60.79
   0   3 -18 1202.68   52.89
   0   3 -18 1190.18   58.39
   0  -3 -18 1350.66   60.89
   0  -3  18 1326.77   52.49
   0  -3  18 1276.37   54.09
   1   3 -18  158.28   15.20
  -1  -3 -18  128.49   21.20
  -1   3  18  111.69   16.50
  -1   3  18  129.79   14.80
  -1  -3 -18   99.39   15.30
   1   3 -18  131.09   23.40
   1   3 -18  206.88   32.70
  -1  -3 -18  145.59   27.40
   1   3 -18  127.79   21.30
  -1   3  18  124.59   21.20
   1  -3  18  150.88   24.50
   1   3 -18  173.58   30.50
  -1  -3 -18  159.28   19.20
   1   3 -18  159.88   23.30
  -1   3  18  113.59   20.70
   1   3 -18  117.29   21.20
   1  -3  18  208.68   34.40
   1  -3  18  194.18   25.50
  -1  -3 -18  152.58   22.50
   1  -3 -18  137.79   24.90
   1  -3 -18  173.38   24.40
   1   3  18  147.69   23.70
  -1  -3  18  164.58   25.20
  -1   3 -18  154.08   28.30
   1   3  18  146.69   24.70
  -1  -3  18  178.28   22.40
  -1  -3  18  139.99   25.00
   1   3  18  183.68   32.40
  -1   3 -18  156.88   22.80
   1  -3 -18  133.59   25.50
  -1   3 -18  177.08   19.80
  -1   3 -18  161.08   23.80
   1   3  18  137.49   22.80
  -1   3 -18  182.68   23.50
   1  -3 -18  145.89   23.30
  -2  -3 -18  111.99   24.30
  -2  -3 -18  156.18   11.90
   2  -3  18  133.39   31.40
   2   3 -18  148.09   25.30
  -2  -3 -18  136.59   20.90
  -2  -3 -18  155.18   23.50
  -2  -3 -18  158.88    9.90
   2   3 -18  103.49   23.70
   2  -3  18  184.08   31.40
  -2   3  18  137.29   30.40
  -2   3  18  146.79   20.60
   2  -3  18  139.49   23.30
   2   3 -18   90.19   21.10
  -2   3  18  151.58   20.10
   2   3 -18  173.38   24.80
   2  -3 -18  178.38   25.90
  -2  -3  18  142.19   21.20
   2  -3 -18  128.39   26.50
   2   3  18  145.39   34.20
  -2   3 -18  203.38   31.20
  -2   3 -18  102.29   25.80
  -2  -3  18  208.78   49.50
  -2   3 -18  117.99   20.00
   2   3  18  102.49   24.80
  -2  -3  18  136.29   18.00
  -2  -3  18  155.58   24.90
   2  -3 -18  146.09   23.30
   2   3  18  187.88   28.50
  -2   3 -18  130.39   25.10
  -2  -3  18  157.38   19.60
  -2   3 -18  151.98   27.50
   2  -3 -18  140.49   24.70
  -2  -3  18  127.69   26.80
  -2  -3  18  155.98   21.00
  -3  -3 -18   75.99   17.50
   3   3 -18   44.10   22.30
  -3  -3 -18   32.70   18.60
   3   3 -18   53.79   19.30
  -3   3  18   40.50   33.10
   3   3 -18   31.00   18.90
  -3   3  18   61.09   23.00
   3  -3  18   48.10   24.10
  -3  -3 -18   96.59   26.40
  -3   3  18   79.49   24.30
   3  -3  18   84.19   29.70
   3  -3 -18   47.70   26.70
   3   3  18  108.29   30.90
   3  -3 -18   45.40   18.20
   3  -3 -18   51.49   22.00
  -3  -3  18   20.80   25.50
  -3  -3  18   68.39   29.30
   3  -3 -18   28.70   20.60
  -3   3 -18   63.39   19.20
  -3   3 -18   37.60   28.10
  -3   3 -18   24.20   25.20
   3   3  18    1.10   30.60
  -3  -3  18   51.89   32.10
  -4   3  18   49.20   51.79
   4  -3  18  114.89   30.90
   4  -3  18  110.89   40.80
   4   3 -18   35.30   30.70
  -4  -3 -18  116.59   40.20
   4   3 -18   43.60   26.80
  -4   3 -18  100.99   49.90
   4   3  18   19.40   43.60
  -4  -3  18    6.40   41.30
   4  -3 -18  104.09   36.50
   4  -3 -18   48.00   22.00
   0  -4 -18   19.60   15.40
   0   4  18   21.20   14.70
   0   4 -18   -6.20   17.00
   0  -4 -18    8.60   23.10
   0   4 -18    3.20   12.60
   0  -4  18    2.80   17.90
   0  -4  18   22.80   18.50
   0  -4  18    9.60   14.90
   0   4  18   25.90   14.40
   0  -4 -18   -2.00   12.80
   0  -4 -18   14.50   14.80
   0   4 -18   17.40   13.90
   0  -4 -18   -7.00   18.30
   0   4 -18   20.60   15.40
   0   4 -18   -2.50   21.80
   0   4 -18    0.80   15.70
  -1  -4 -18 1043.00   51.29
   1   4 -18 1003.70   58.79
  -1  -4 -18  998.20   45.90
  -1  -4 -18 1006.90   45.20
  -1  -4 -18  945.71   47.60
   1  -4  18  982.80   66.59
  -1   4  18  991.60   54.49
  -1   4  18  972.80   52.49
   1  -4  18 1029.50   53.19
  -1  -4 -18  954.90   60.99
   1   4 -18  964.40   52.19
   1   4 -18 1010.70   54.09
  -1   4  18  995.30   34.10
   1   4 -18  976.70   31.40
   1  -4  18 1055.19   54.09
  -1   4  18  995.40   43.60
  -1   4 -18 1018.30   55.99
  -1  -4  18 1050.19   48.80
  -1  -4  18 1024.80   49.99
  -1  -4  18 1045.80   55.19
   1  -4 -18  976.50   49.40
   1  -4 -18  957.30   58.29
   1   4  18  964.00   52.69
   1  -4 -18  997.60   50.89
  -1   4 -18 1026.80   49.30
   1   4  18 1054.79   69.29
  -1   4 -18 1020.70   61.49
   1  -4 -18 1016.70   60.49
  -1   4 -18 1037.80   52.99
  -1   4 -18 1098.29   45.20
   1   4  18 1061.69   53.99
  -2  -4 -18   75.09   31.30
  -2  -4 -18   97.29   26.30
  -2   4  18   60.09   18.10
   2   4 -18   75.89   22.60
  -2   4  18   99.79   23.20
   2  -4  18   60.49   24.90
   2   4 -18  103.49   23.20
   2   4 -18   73.59   21.40
  -2  -4 -18   88.89   23.30
  -2  -4 -18  110.29   21.70
  -2   4  18  153.58   32.10
   2  -4  18  123.89   27.40
   2  -4 -18   95.89   20.10
  -2  -4  18  111.09   26.70
  -2   4 -18  110.49   27.90
   2   4  18  110.69   28.20
  -2   4 -18   93.09   15.40
   2  -4 -18   29.00   25.40
   2  -4 -18  129.59   23.10
  -2   4 -18   30.50   26.80
   2   4  18   91.39   22.10
  -2  -4  18   84.49   19.80
   2  -4 -18   94.79   24.90
  -2  -4  18   82.19   29.60
  -2  -4  18   50.09   18.50
  -2   4 -18   83.49   25.70
  -2   4 -18  134.89   27.70
  -2   4 -18  133.99   33.50
  -3   4  18  238.18   47.70
   3   4 -18  289.67   42.40
   3   4 -18  298.67   41.50
   3  -4  18  361.66   42.00
  -3  -4 -18  299.27   48.60
   3   4 -18  267.97   41.20
  -3   4  18  324.07   46.00
  -3   4 -18  281.37   47.80
   3  -4 -18  256.67   41.60
  -3   4 -18  241.68   45.00
   3  -4 -18  260.47   40.60
   3  -4 -18  310.17   35.30
  -3  -4  18  316.97   51.99
   3  -4 -18  331.97   35.60
  -3  -4  18  253.67   44.30
   3   4  18  224.48   39.10
   0   5 -18  743.93   51.19
   0   5 -18  800.12   52.29
   0   5 -18  759.62   53.59
   0  -5  18  702.43   60.79
   0  -5 -18  691.03   49.20
   0   5  18  724.93   42.50
   0  -5 -18  680.03   59.09
   0  -5 -18  762.92   35.80
   0  -5 -18  748.13   49.00
   0   5  18  730.93   48.50
   0   5 -18  703.13   33.70
   0  -5  18  776.32   49.10
   1   5 -18  419.96   42.30
  -1  -5 -18  370.16   53.39
  -1  -5 -18  435.26   38.70
  -1   5  18  413.96   40.60
   1  -5  18  368.16   40.40
   1  -5  18  442.76   47.00
   1  -5  18  357.66   39.50
   1   5 -18  381.56   49.50
   1   5 -18  403.26   43.20
  -1  -5 -18  445.06   39.20
  -1  -5 -18  409.06   39.20
  -1  -5 -18  450.25   40.10
   1  -5 -18  432.76   49.20
  -1   5 -18  432.76   45.10
  -1  -5  18  407.46   37.20
   1   5  18  445.46   42.60
  -1   5 -18  418.56   46.40
   1  -5 -18  500.45   51.89
  -1   5 -18  429.36   36.50
  -1  -5  18  496.85   50.39
   1   5  18  510.45   44.00
  -1   5 -18  473.25   38.60
  -1   5 -18  392.96   50.39
  -1  -5  18  499.95   42.20
   1  -5 -18  433.06   40.60
   1  -5 -18  356.66   38.50
  -2  -5 -18  290.77   37.50
  -2   5  18  352.16   53.79
   2  -5  18  279.37   46.90
   2   5 -18  332.47   44.00
  -2  -5 -18  267.97   37.90
  -2  -5 -18  262.87   45.70
   2  -5  18  315.87   51.09
   2   5 -18  356.66   46.30
   2   5 -18  240.18   38.50
  -2   5  18  355.36   42.00
  -2   5 -18  279.47   37.60
  -2   5 -18  259.07   47.40
  -2  -5  18  296.17   35.40
  -2   5 -18  341.07   43.10
   2  -5 -18  304.27   41.90
   2  -5 -18  258.47   45.80
  -2  -5  18  305.37   42.80
   2  -5 -18  291.87   38.40
  -2  -5  18  259.77   45.60
   2   5  18  282.27   42.40
   0   6  18  132.09   30.40
   0   6 -18  114.89   31.40
   0  -6  18  134.39   33.60
   0  -6 -18   77.19   27.40
   0  -6  18  126.29   29.40
   0  -6  18  149.69   32.60
   0  -6 -18  178.38   41.90
   0  -6 -18   78.49   30.00
   0   6 -18  119.99   33.40
   0   6 -18   70.59   39.20
  -1  -6 -18  293.97   43.90
  -1  -6 -18  393.46   60.79
   1  -6  18  364.36   49.40
   1  -6  18  365.26   48.40
   1   6 -18  465.75   52.79
   1  -6  18  283.17   43.90
  -1  -6 -18  338.07   45.70
   1   6 -18  211.68   41.90
  -1   6  18  370.26   47.80
   1   6 -18  437.56   52.19
  -1  -6  18  313.57   52.19
  -1  -6  18  330.07   42.90
   1  -6 -18  370.66   62.79
  -1   6 -18  324.87   51.69
  -1   6 -18  380.66   57.39
   1   6  18  366.76   48.40
  -1  -6  18  304.97   41.80
  -1   6 -18  274.37   45.70
  -1  -6  18  328.37   52.29
   1   6  18  301.47   50.69
   1  -6 -18  382.66   44.40
   0   0 -19    1.00   10.30
   0   0  19    8.70   10.00
   0   0  19   -6.10   13.70
   0   0  19   -1.60   11.20
   0   0 -19   11.60    9.30
   0   0  19   -6.90   10.50
   0   0 -19   -1.50    7.90
   0   0 -19   -8.70   11.30
   0   0 -19   19.40   10.30
   0   0 -19   16.20    8.60
   0   0  19    7.50    9.70
   0   0  19   -0.90   12.70
   0   0  19   -1.90    8.90
   0   0  19    2.80    9.60
  -1   0  19   39.90   13.40
  -1   0 -19   59.39   18.50
  -1   0  19   19.50   11.40
  -1   0  19   24.70    7.90
   1   0  19   -2.70   15.00
  -1   0 -19   38.40   11.60
   1   0  19   42.10   11.00
   1   0  19   47.30   13.40
   1   0 -19    9.80   10.80
   1   0  19   45.70   14.70
  -1   0 -19   26.10   10.30
  -1   0  19   42.20   17.20
   1   0 -19   38.80   11.70
  -1   0  19   23.80   11.60
  -1   0  19   26.40   13.10
   1   0 -19   27.40   11.10
  -1   0 -19   23.20   11.60
   1   0  19   32.00   11.70
   1   0  19   44.80   16.10
   1   0 -19   30.50   12.20
   1   0 -19   27.60   12.50
   2   0 -19    6.30   12.40
   2   0  19   -2.10   17.00
   2   0 -19   15.10   12.10
   2   0 -19   11.40   14.20
  -2   0  19   22.80   10.10
  -2   0 -19   18.10   10.00
  -2   0  19    4.40   10.80
  -2   0  19   -6.20   17.40
  -2   0  19   22.80   14.20
   2   0 -19    9.00   15.30
   2   0 -19   -4.30   11.00
   2   0 -19   10.90    9.90
   2   0  19   22.10   14.70
   2   0  19   12.20    9.60
   2   0  19   14.60    9.70
  -2   0  19   -3.20   13.10
   2   0  19   31.20   24.10
  -2   0 -19  -15.50   17.80
  -2   0 -19    9.50   11.90
  -2   0 -19   29.80   17.00
  -3   0  19    5.30   26.60
   3   0  19   15.70   23.80
  -3   0 -19   14.00   12.10
   3   0  19   13.90   12.70
   3   0 -19   -4.60   12.80
   3   0  19   10.10   18.50
   3   0 -19   -6.40   20.70
  -3   0  19  -10.70   17.60
   3   0 -19    0.50   15.10
  -3   0 -19  -12.80   17.50
   3   0 -19   55.69   20.70
   3   0 -19  -26.00   15.10
  -3   0  19    1.30   24.00
  -3   0 -19   39.50   21.40
   3   0 -19   26.40   15.30
   4   0  19   51.99   30.90
  -4   0  19   78.79   41.40
   4   0  19   85.29   36.30
  -4   0 -19   95.49   37.30
   4   0 -19  107.29   18.90
   4   0 -19  115.19   35.20
  -4   0  19  117.39   39.30
   4   0  19  171.68   25.90
   0  -1 -19  728.83   34.90
   0  -1 -19  735.93   37.00
   0  -1  19  662.63   35.60
   0   1  19  641.44   33.20
   0  -1 -19  691.23   40.80
   0   1 -19  714.73   36.30
   0   1 -19  698.03   38.20
   0   1 -19  733.03   36.30
   0  -1  19  603.64   34.20
   0  -1  19  703.63   40.40
   0  -1  19  750.82   34.80
   0   1  19  728.13   33.80
   0  -1 -19  711.23   36.40
   0   1  19  692.23   41.80
   0  -1 -19  683.23   34.90
   0  -1 -19  695.03   35.60
   0   1  19  740.33   38.20
   0  -1  19  665.53   36.70
   0  -1  19  721.63   38.60
   0  -1  19  728.03   35.20
   0   1  19  719.73   37.00
   0   1  19  721.03   39.10
   0   1 -19  761.42   36.30
   0   1 -19  720.63   41.60
   0   1 -19  683.73   37.10
   0   1  19  720.33   36.50
   0  -1  19  679.03   41.90
  -1   1  19   76.29    6.50
   1   1 -19   84.09   15.80
  -1   1  19   89.19   20.10
   1   1 -19  104.69   17.70
  -1  -1 -19   84.29   15.40
   1   1 -19   54.69   16.40
   1  -1  19   67.69   18.30
  -1  -1 -19   62.49   16.30
  -1   1  19   60.39   15.70
  -1   1  19   96.39   14.00
   1  -1  19   81.69   16.50
   1  -1  19  114.19   18.90
  -1  -1 -19  105.69   16.10
   1   1 -19   52.39   14.50
   1   1 -19  111.69   19.20
   1  -1  19  134.99   25.00
  -1   1  19   90.79   12.60
   1   1 -19   98.69   18.40
  -1  -1 -19   81.79   15.60
   1   1 -19   90.89   17.20
  -1   1  19   69.99   15.70
   1   1 -19   80.79   15.40
   1  -1  19   82.09   14.10
   1  -1  19   68.49   14.10
   1   1  19   57.49   14.60
   1   1  19   67.09   17.40
   1  -1 -19   51.69   16.10
  -1   1 -19  113.39   20.80
   1  -1 -19  109.99   17.30
  -1  -1  19  132.89   19.50
  -1  -1  19   85.89   16.10
  -1  -1  19  101.99   20.90
   1   1  19   57.79   14.00
  -1  -1  19   80.59   13.00
   1  -1 -19   94.99   16.40
   1   1  19   73.59   16.70
   1  -1 -19   85.69   18.70
   1  -1 -19   66.69   15.10
  -1   1 -19   82.99   15.20
  -1  -1  19   95.89   19.10
  -1  -1  19   75.29   15.00
   1   1  19   46.10   18.80
  -1   1 -19   55.69   13.20
  -1   1 -19   76.49   15.70
  -1  -1  19   94.79   16.50
  -1   1 -19  107.59   18.10
   1  -1 -19   64.19   13.00
  -2   1  19  214.88   32.20
  -2  -1 -19  199.88   28.20
  -2  -1 -19  189.98   26.10
   2  -1  19  220.68   30.30
   2  -1  19  209.08   26.80
  -2   1  19  204.78   17.50
  -2   1  19  160.48   25.40
  -2  -1 -19  178.38   23.60
  -2  -1 -19  153.18   19.50
   2  -1  19  176.58   45.20
   2   1 -19  187.08   28.70
   2   1 -19  221.98   26.60
   2   1 -19  182.58   29.60
   2   1 -19  163.78   23.40
  -2   1  19  212.68   28.80
   2  -1  19  200.18   20.50
   2   1 -19  169.58   16.00
  -2  -1 -19  175.88   23.50
   2   1 -19  144.99   20.70
   2  -1  19  228.98   24.60
   2   1  19  203.88   24.50
  -2   1 -19  183.38   21.20
  -2  -1  19  209.08   31.20
   2  -1 -19  191.88   29.70
   2  -1 -19  167.68   22.70
   2   1  19  167.48   29.50
   2   1  19  155.08   25.70
  -2  -1  19  163.28   29.70
   2   1  19  221.18   31.80
   2  -1 -19  240.48   26.90
   2  -1 -19  217.88   20.80
   2  -1 -19  185.08   23.10
  -2  -1  19  171.68   23.90
  -2   1 -19  197.78   26.80
  -2   1 -19  164.58   22.90
  -2  -1  19  159.98   18.80
   2  -1 -19  207.38   25.40
   3   1 -19  191.38   27.50
  -3  -1 -19  104.39   27.70
   3  -1  19   77.49   23.40
   3   1 -19  128.39   20.40
   3   1 -19  140.89   28.00
  -3  -1 -19  184.38   21.30
   3   1 -19  156.98   22.30
   3  -1  19   90.29   24.80
  -3   1  19  144.59   30.50
   3  -1  19  103.89   17.50
  -3  -1 -19  184.68   27.10
   3  -1 -19  136.39   28.90
   3   1  19  140.89   31.00
   3   1  19   84.19   26.00
   3   1  19  137.09   22.00
   3  -1 -19  136.49   25.20
   3  -1 -19  107.49   20.50
   3  -1 -19  116.89   20.40
  -3  -1  19  132.99   34.70
  -3  -1  19  163.28   33.30
  -3   1 -19  147.99   31.90
   3  -1 -19  173.88   23.80
  -3  -1  19  156.88   25.70
  -3   1 -19  140.49   20.50
   4   1 -19   69.49   29.70
  -4  -1 -19  131.69   41.50
   4  -1  19   80.79   36.40
  -4   1  19   65.79   36.00
  -4   1  19  122.89   48.60
   4   1 -19  105.59   19.80
   4  -1  19  122.89   32.70
   4  -1 -19  121.49   21.30
  -4  -1  19  127.99   38.20
  -4   1 -19  160.48   37.50
   4   1  19   62.79   33.90
   4   1  19  155.78   25.10
   4   1  19   87.99   35.20
  -4  -1  19   65.99   37.50
  -4  -1  19   98.39   42.50
   4  -1 -19  159.28   37.20
   0   2 -19   47.20   13.30
   0   2 -19   51.99   17.30
   0   2 -19   44.20   13.40
   0  -2 -19   37.90   14.90
   0  -2  19   43.80   13.50
   0   2  19   44.70   15.50
   0   2  19   33.10   16.90
   0  -2  19   44.30   21.50
   0   2  19   49.30    9.10
   0  -2 -19   34.00   12.50
   0   2 -19   36.10   12.90
   0  -2  19   39.60   15.40
   0   2  19   32.10   11.70
   0  -2 -19   19.70   15.50
   0  -2 -19   89.79   18.60
   0   2  19   31.60   12.90
   0  -2 -19   28.00   11.50
   0   2 -19   43.80   11.80
   0  -2  19   25.30   11.00
   0  -2 -19   53.39   14.80
   0   2 -19   69.89   18.80
  -1  -2 -19  321.77   25.30
   1   2 -19  197.58   28.50
  -1  -2 -19  255.17   22.80
  -1  -2 -19  265.87   21.50
  -1   2  19  275.27   19.60
  -1   2  19  298.77   17.50
   1  -2  19  204.98   32.40
   1  -2  19  274.47   25.00
   1   2 -19  273.37   27.70
   1   2 -19  285.17   25.80
  -1   2  19  262.57   25.90
  -1   2  19  277.77   26.80
  -1   2  19  291.47   20.10
   1  -2  19  313.87   38.00
  -1   2  19  356.66   32.00
   1   2 -19  316.67   30.50
   1   2 -19  309.87   30.60
  -1  -2 -19  263.97   24.40
   1   2 -19  287.17   27.40
   1  -2  19  234.88   20.80
  -1  -2 -19  292.07   32.50
   1  -2  19  292.87   27.00
  -1   2 -19  268.97   26.80
   1   2  19  275.17   37.20
   1   2  19  263.17   28.50
   1   2  19  328.47   33.20
   1  -2 -19  302.27   30.70
   1   2  19  322.77   28.70
  -1   2 -19  283.57   25.90
   1  -2 -19  289.87   24.00
   1  -2 -19  315.57   23.40
  -1  -2  19  242.88   31.90
  -1  -2  19  260.57   20.40
  -1  -2  19  265.97   27.40
   1   2  19  286.27   27.90
   1  -2 -19  220.78   25.40
   1  -2 -19  266.17   25.00
  -1  -2  19  277.57   27.00
  -1   2 -19  234.48   31.00
  -1   2 -19  289.97   26.90
  -1   2 -19  304.47   27.80
   1  -2 -19  275.87   29.50
  -1  -2  19  280.27   29.10
  -1  -2  19  287.37   25.40
  -2  -2 -19  275.47   17.00
  -2  -2 -19  251.97   13.50
   2  -2  19  241.88   12.80
   2   2 -19  247.98   30.80
  -2  -2 -19  244.48   27.90
  -2  -2 -19  258.67   27.90
   2  -2  19  252.37   14.70
  -2   2  19  310.17   25.00
   2  -2  19  299.37   41.90
   2   2 -19  253.67   27.60
  -2   2  19  209.28   28.30
  -2   2  19  251.07   31.10
   2   2 -19  200.38   27.40
  -2  -2 -19  345.97   37.60
   2  -2  19  218.88   28.10
   2  -2  19  237.78   42.70
   2   2 -19  276.77   25.30
  -2   2  19  307.37   40.00
   2   2  19  184.18   39.80
   2  -2 -19  249.38   26.00
  -2  -2  19  289.47   25.20
  -2  -2  19  278.07   22.60
   2   2  19  287.97   28.00
   2  -2 -19  272.67   26.20
   2  -2 -19  255.67   34.60
  -2  -2  19  258.67   39.60
   2   2  19  260.67   41.60
   2   2  19  302.27   38.80
  -2   2 -19  282.57   32.80
  -2  -2  19  311.67   35.40
  -2  -2  19  243.78   21.20
  -2   2 -19  334.27   35.50
   2  -2 -19  246.98   27.80
  -2   2 -19  272.57   26.60
  -2   2 -19  188.48   27.10
   2  -2 -19  269.97   19.60
   2  -2 -19  222.18   29.20
  -2  -2  19  245.98   29.00
   3   2 -19  203.78   32.50
  -3   2  19  151.78   38.00
   3  -2  19  294.57   40.00
  -3   2  19  186.38   30.40
   3  -2  19  178.48   28.20
   3   2 -19  177.18   28.60
   3   2 -19  195.18   28.20
  -3  -2 -19  170.98   30.90
  -3  -2 -19  240.78   25.60
  -3   2  19  218.68   39.10
   3  -2 -19  202.28   27.10
  -3  -2  19  200.18   31.00
   3  -2 -19  174.58   25.80
   3   2  19  194.68   37.00
  -3  -2  19  137.99   31.30
   3   2  19  225.68   41.10
   3   2  19  207.88   33.10
  -3  -2  19  182.58   35.80
   3  -2 -19  169.38   24.00
  -3   2 -19  204.28   32.20
   3  -2 -19  185.88   27.30
  -3   2 -19  208.98   25.40
   3  -2 -19  135.49   31.20
   4  -2  19   47.40   40.60
  -4  -2 -19  171.08   43.80
  -4   2  19   28.60   46.70
   4   2 -19  135.79   34.30
   4   2 -19  144.99   23.50
   4   2 -19  226.08   41.60
  -4   2  19  190.18   40.60
   4  -2  19  146.19   35.60
   4   2  19  145.19   27.00
   4  -2 -19  136.59   24.00
   4  -2 -19  211.58   40.60
  -4  -2  19  177.88   47.20
   4   2  19  151.68   37.70
   4   2  19  167.18   43.40
  -4   2 -19  189.48   42.00
  -4   2 -19  190.98   38.00
  -4  -2  19  227.88   44.00
  -4  -2  19  149.49   44.80
   0  -3  19   88.99   17.00
   0   3 -19   91.29   17.40
   0  -3 -19  113.39   19.20
   0   3 -19  115.09   26.70
   0  -3 -19   96.89   18.70
   0  -3 -19   90.99   18.40
   0   3 -19   79.09   17.90
   0   3 -19  115.79   18.20
   0  -3 -19  133.19   21.30
   0  -3  19   90.29   18.80
   0   3  19   57.39   15.30
   0  -3 -19   78.89   22.00
   0  -3  19   81.89   18.10
   0   3  19   98.39   16.10
   0   3 -19   87.89   19.00
   0  -3 -19  115.59   20.00
   0  -3  19  103.09   19.20
   0   3  19   90.29   17.40
   1   3 -19    8.30   12.20
   1   3 -19  -13.20   18.70
   1  -3  19   10.60   13.80
  -1  -3 -19  -10.30   18.20
   1   3 -19   29.30   18.50
   1   3 -19   -8.10   17.00
  -1  -3 -19    4.50   12.20
  -1  -3 -19   11.10   10.50
   1   3 -19   11.00    9.10
  -1   3  19    9.80    8.60
   1  -3  19    2.40   24.30
   1  -3  19   26.50   18.30
  -1   3  19    5.70   11.80
  -1   3  19   18.20   12.10
  -1  -3 -19    0.80   12.80
  -1  -3 -19   -0.60   14.20
  -1  -3  19   -6.20   11.50
  -1   3 -19   -3.50   13.90
   1   3  19  -15.90   14.70
   1   3  19    8.80   25.50
   1  -3 -19   32.90   14.50
  -1  -3  19   26.60   20.20
   1  -3 -19   -6.70   11.50
   1  -3 -19   10.20   14.70
   1   3  19    1.40   15.60
  -1   3 -19   24.50   18.00
  -1   3 -19   -2.80   14.40
  -1  -3  19   -7.10   17.20
   1  -3 -19   -7.40   15.70
  -1   3 -19    7.50   12.10
  -1   3 -19    3.50   13.30
   1  -3 -19   22.80   18.40
  -2   3  19   54.39   18.90
  -2  -3 -19   61.89   18.30
  -2  -3 -19   94.29   10.30
   2   3 -19   50.69   16.40
  -2  -3 -19   85.89   16.90
   2   3 -19   75.79   19.80
   2  -3  19   66.79   20.10
  -2   3  19   28.40   23.60
  -2  -3 -19   50.89   22.30
  -2   3  19   73.09   18.30
   2  -3  19  141.59   28.30
   2   3 -19   29.80   21.40
   2   3 -19   87.39   20.40
  -2   3 -19   82.69   25.40
  -2   3 -19   31.00   17.40
   2   3  19   81.49   25.00
  -2   3 -19   57.89   25.00
  -2  -3  19   78.39   15.00
   2   3  19   71.79   19.80
   2  -3 -19   56.89   20.00
   2  -3 -19   95.99   33.30
  -2  -3  19   75.79   18.60
  -2  -3  19   49.90   24.60
  -2  -3  19   69.99   15.80
  -2  -3  19    8.40   22.60
  -2   3 -19   69.79   19.00
   2   3  19   93.79   38.70
   2  -3 -19   54.19   24.50
  -2  -3  19   70.89   21.40
  -2   3 -19   51.19   21.80
   3   3 -19  134.29   27.00
  -3   3  19  123.99   28.80
  -3  -3 -19  171.78   28.70
   3  -3  19  110.29   26.30
   3  -3  19  181.18   33.40
   3   3 -19  102.39   24.00
  -3   3  19  160.88   41.20
  -3  -3 -19  144.59   23.20
  -3   3  19  171.38   29.90
   3   3 -19  141.79   23.70
  -3  -3 -19  149.99   32.10
  -3   3 -19  182.68   36.80
   3   3  19  195.78   35.70
  -3  -3  19  136.49   34.40
   3   3  19  158.88   35.30
  -3   3 -19  224.18   39.60
   3  -3 -19  130.59   23.40
  -3  -3  19  149.88   37.90
   3  -3 -19   96.29   31.00
   3  -3 -19  141.89   24.30
   3   3  19  165.38   35.30
   3  -3 -19  146.19   25.50
  -3  -3  19  168.48   42.20
   0  -4  19   10.60   18.10
   0  -4  19   36.20   19.70
   0   4 -19   10.80   17.00
   0  -4 -19   28.90   16.80
   0   4  19    6.30   14.60
   0   4 -19   36.70   15.90
   0   4 -19   29.40   18.50
   0   4 -19   33.60   19.10
   0  -4 -19  -13.20   16.30
   0  -4  19   53.69   20.20
   0  -4 -19  -22.10   22.20
   0  -4 -19   -0.70   15.00
   0  -4 -19   15.80   14.40
   0   4  19    5.50   15.50
   0   4 -19   49.50   14.70
   0   4 -19  -27.10   18.40
   1  -4  19  280.37   36.00
  -1  -4 -19  305.07   30.90
  -1  -4 -19  252.47   30.60
   1   4 -19  278.67   35.80
   1  -4  19  441.06   55.69
   1  -4  19  285.67   35.10
   1   4 -19  298.57   19.80
   1   4 -19  261.97   40.70
  -1   4  19  246.38   18.70
  -1   4  19  303.57   33.60
  -1  -4 -19  271.57   43.60
  -1   4  19  221.38   37.10
   1   4 -19  245.58   32.20
  -1  -4 -19  348.87   29.00
  -1  -4 -19  317.87   29.20
  -1  -4  19  282.87   40.80
  -1   4 -19  285.27   27.20
  -1   4 -19  243.98   31.80
  -1   4 -19  331.67   36.40
   1  -4 -19  318.87   34.30
  -1  -4  19  333.97   31.90
  -1   4 -19  263.87   35.60
   1   4  19  289.07   33.70
   1  -4 -19  291.37   31.20
  -1  -4  19  278.87   30.40
   1   4  19  252.67   33.80
   1  -4 -19  219.78   38.60
  -1   4 -19  242.78   30.30
   1  -4 -19  233.68   37.90
   1   4  19  323.17   53.99
   2   4 -19    8.40   16.70
  -2   4  19   18.90   20.30
  -2  -4 -19   14.20   18.50
  -2  -4 -19  -23.40   31.10
   2   4 -19   31.90   18.10
   2  -4  19   42.70   22.80
  -2   4  19   77.49   29.10
  -2  -4 -19   16.90   21.80
   2   4 -19    2.60   18.00
  -2  -4 -19   10.80   20.50
   2  -4  19   21.60   23.30
  -2   4  19   -3.80   19.10
   2  -4 -19   -5.00   23.80
  -2   4 -19   23.80   21.00
   2   4  19   46.40   20.70
  -2  -4  19   42.60   26.90
   2  -4 -19    4.20   17.00
  -2  -4  19    4.60   15.60
  -2  -4  19   25.80   18.10
  -2   4 -19    2.60   20.20
  -2   4 -19   58.79   25.40
  -2   4 -19   47.60   24.90
  -2  -4  19    0.00   20.40
   2   4  19   -6.90   27.70
   2  -4 -19   35.90   20.40
   2  -4 -19   57.09   23.40
   3  -4  19   74.79   29.30
   3  -4  19  128.79   34.90
  -3  -4 -19   27.40   33.90
  -3   4  19   46.50   26.70
  -3   4  19   90.19   40.70
   3   4 -19   54.79   29.50
   3   4 -19   53.19   25.90
   3   4 -19   62.69   25.80
  -3  -4 -19  130.99   33.50
   3  -4 -19   84.29   23.20
   3  -4 -19  113.59   26.10
   3  -4 -19  145.19   28.30
  -3  -4  19  156.98   36.40
   3   4  19  127.19   39.80
  -3  -4  19  128.19   41.20
   3  -4 -19  124.59   37.60
  -3   4 -19   96.59   36.90
  -3   4 -19  101.99   33.70
   0   5 -19    8.10   22.50
   0  -5 -19    2.50   22.70
   0  -5  19   28.60   23.00
   0   5  19   47.90   19.90
   0   5 -19   42.70   23.80
   0  -5 -19   72.19   23.50
   0   5 -19   -9.40   24.50
   0  -5 -19    7.70   28.00
   0   5  19   45.60   19.20
   0  -5  19   37.40   22.50
  -1  -5 -19   31.60   20.80
   1  -5  19   40.30   24.00
  -1  -5 -19   96.39   25.10
   1   5 -19   50.19   23.20
  -1  -5 -19   33.60   24.10
  -1  -5 -19   23.50   36.00
   1  -5  19   68.79   28.00
   1   5 -19   55.69   21.90
  -1   5  19   46.90   20.50
  -1   5  19   17.60   25.30
  -1  -5 -19   96.19   21.60
   1   5 -19   12.20   28.00
  -1  -5  19   71.39   24.50
   1   5  19   51.99   26.30
  -1  -5  19   52.29   21.80
   1   5  19   60.79   23.10
   1  -5 -19   72.49   29.50
   1  -5 -19   41.90   22.30
   1  -5 -19   26.90   20.60
  -1   5 -19   61.69   25.60
  -1   5 -19    7.30   28.40
  -1   5 -19   84.49   24.90
  -1   5 -19   93.49   22.80
  -1   5 -19   76.89   27.80
   1  -5 -19   65.09   29.70
  -1  -5  19   79.49   29.70
  -2   5  19   23.70   32.70
   2   5 -19   73.49   27.70
   2  -5  19   67.59   29.10
  -2  -5 -19   87.99   29.30
  -2  -5 -19   88.89   25.30
   2   5 -19   60.39   25.90
   2   5 -19   73.49   29.00
  -2   5  19   59.19   26.30
   2  -5  19   82.29   34.10
  -2  -5 -19   77.49   27.80
   2  -5 -19   80.69   25.50
   2   5  19   18.10   30.80
   2  -5 -19   65.09   27.10
  -2  -5  19  118.69   34.40
   2  -5 -19   17.10   30.40
  -2   5 -19   39.40   31.10
  -2   5 -19   62.29   30.70
   2   5  19   90.39   25.00
  -2  -5  19   66.69   36.10
   2  -5 -19  104.49   29.70
  -2   5 -19   67.49   32.40
  -2  -5  19  -24.80   33.60
  -2   5 -19   42.30   26.40
   0   6 -19   22.20   37.00
   0  -6 -19   43.80   25.60
   0  -6  19   61.79   33.90
   0  -6 -19   47.60   34.10
   0  -6 -19   33.60   28.80
   0  -6 -19   79.69   34.20
   0  -6  19   44.10   30.20
   0  -6  19  112.09   33.90
   0   6 -19   79.09   30.50
   0   6  19   49.80   24.30
   0   6 -19    0.40   27.80
  -1  -6 -19   88.69   28.90
   1   6 -19   78.99   32.40
   1  -6  19   74.59   28.60
  -1   6  19   71.49   28.00
  -1  -6 -19  124.59   32.90
   1  -6  19   54.89   35.50
   1  -6  19   42.30   31.30
   1   6 -19   83.49   37.40
   1   6 -19  125.59   32.30
   1  -6 -19  131.39   29.40
  -1   6 -19   32.40   31.50
  -1  -6  19  119.69   33.30
  -1   6 -19   78.09   32.50
  -1   6 -19   66.69   32.00
  -1  -6  19  103.89   36.00
  -1  -6  19   80.19   32.20
   1  -6 -19   47.70   34.70
   1  -6 -19  181.78   41.20
  -1  -6  19   92.69   30.30
   1   6  19   24.50   33.00
   1   6  19   71.99   28.70
   1  -6 -19   64.39   29.50
   0   0  20 1883.21   64.39
   0   0  20 1778.32   70.09
   0   0  20 1848.12   68.49
   0   0 -20 1898.71   71.29
   0   0 -20 1833.92   64.69
   0   0 -20 1793.62   65.29
   0   0  20 1832.62   65.89
   0   0  20 1860.31   62.49
   0   0 -20 1859.71   64.89
   0   0 -20 1820.22   63.29
   0   0 -20 1799.72   64.79
   0   0  20 1749.03   66.99
  -1   0 -20 1073.49   42.80
   1   0  20 1114.39   45.70
   1   0 -20 1053.59   44.50
   1   0 -20 1145.19   45.80
  -1   0  20 1122.89   54.19
  -1   0  20 1187.88   56.19
   1   0  20 1106.19   47.20
  -1   0 -20 1136.09   48.10
   1   0 -20 1111.09   47.70
   1   0  20 1111.09   49.70
   1   0 -20 1150.18   50.59
   1   0  20 1180.08   55.49
  -1   0  20  906.11   45.70
  -1   0  20 1142.59   45.50
  -1   0  20 1132.59   44.20
   1   0 -20 1132.99   52.09
   1   0  20 1178.18   53.39
  -1   0 -20 1093.59   53.09
   1   0  20 1143.09   48.40
   1   0 -20 1118.19   50.89
  -1   0  20 1048.80   44.40
  -1   0 -20 1083.39   46.50
   2   0  20 1377.46   49.90
   2   0 -20 1439.86   63.69
   2   0 -20 1232.88   69.59
  -2   0  20 1394.36   69.49
  -2   0 -20 1429.26   47.50
  -2   0 -20 1376.86   62.39
  -2   0  20 1357.56   47.70
  -2   0  20 1343.47   59.89
   2   0  20 1471.45   65.49
  -2   0  20 1394.66   66.79
   2   0  20 1310.27   66.19
   2   0 -20 1354.26   51.19
  -2   0 -20 1366.16   64.29
   2   0 -20 1416.76   55.19
   2   0  20 1392.76   65.49
  -2   0  20 1403.56   45.30
   2   0 -20 1297.37   67.09
   2   0 -20 1398.66   53.19
   2   0  20 1340.37   53.79
  -2   0 -20 1318.77   53.99
   3   0 -20  414.06   31.60
  -3   0 -20  491.95   43.70
  -3   0 -20  467.45   29.40
   3   0  20  420.46   29.80
  -3   0  20  408.76   34.80
  -3   0  20  416.26   53.09
   3   0  20  406.16   42.90
   3   0 -20  387.16   46.10
   3   0 -20  485.75   36.60
   3   0  20  540.65   49.30
  -3   0  20  553.44   50.19
  -3   0 -20  442.46   39.20
   3   0 -20  507.05   32.40
   4   0  20  175.18   38.40
  -4   0  20  126.89   47.40
   4   0 -20  224.48   29.40
  -4   0 -20  237.28   46.20
  -4   0  20  211.38   44.10
   4   0  20  310.07   57.69
   4   0 -20  161.48   38.40
   4   0  20  208.08   28.80
   0   1  20  497.85   39.20
   0  -1  20  570.94   36.20
   0  -1  20  531.35   32.10
   0  -1 -20  557.04   33.90
   0  -1 -20  547.45   32.10
   0   1  20  518.05   35.10
   0  -1 -20  573.74   34.00
   0   1  20  539.35   27.40
   0   1  20  560.84   34.00
   0   1 -20  565.44   34.10
   0  -1 -20  535.25   31.00
   0  -1  20  532.85   34.90
   0   1  20  529.65   29.50
   0   1  20  582.54   34.70
   0   1  20  551.84   31.60
   0  -1  20  569.24   39.20
   0  -1 -20  551.34   33.20
   0  -1 -20  535.55   36.90
   0  -1  20  544.35   31.80
   0   1 -20  532.95   33.00
   0   1 -20  554.24   38.30
   0   1 -20  572.84   36.70
   0   1 -20  582.74   33.60
   0  -1  20  571.14   36.00
   1   1 -20  291.37   26.70
  -1   1  20  318.57   18.30
   1   1 -20  362.36   31.40
  -1   1  20  347.27   17.30
  -1  -1 -20  283.07   24.80
  -1   1  20  274.27   25.20
   1  -1  20  274.27   25.20
   1  -1  20  299.67   30.40
   1   1 -20  327.97   24.70
   1   1 -20  328.97   27.70
   1  -1  20  318.27   36.30
  -1   1  20  333.57   33.00
  -1   1  20  302.77   10.90
   1  -1  20  317.87   23.80
   1  -1  20  311.87   28.60
   1   1 -20  303.67   32.20
   1   1 -20  358.66   30.10
  -1  -1 -20  268.47   31.00
  -1  -1 -20  310.17   25.40
   1   1 -20  309.17   25.90
  -1  -1 -20  327.47   22.50
  -1   1  20  319.37   30.00
  -1   1  20  282.37   21.50
   1  -1  20  328.57   27.90
   1   1  20  304.47   26.80
  -1   1 -20  306.87   23.40
  -1  -1  20  328.47   30.70
  -1   1 -20  344.37   26.50
  -1  -1  20  273.77   32.20
  -1  -1  20  329.97   26.50
   1  -1 -20  317.07   26.10
  -1  -1  20  323.37   19.40
   1   1  20  326.27   27.10
  -1  -1  20  266.27   24.90
  -1   1 -20  347.87   25.90
   1  -1 -20  318.97   30.10
   1  -1 -20  319.17   28.90
  -1   1 -20  293.47   33.50
   1  -1 -20  324.37   25.10
  -1  -1  20  321.17   29.10
   1   1  20  293.17   25.70
   1   1  20  382.36   32.20
  -1   1 -20  284.37   23.60
   1  -1 -20  301.77   24.90
  -1  -1  20  337.97   26.50
   1  -1 -20  335.37   32.90
   1   1  20  280.47   30.40
   2  -1  20  428.16   27.80
   2  -1  20  446.66   38.40
   2   1 -20  452.45   21.80
  -2  -1 -20  371.76   30.30
   2   1 -20  332.87   50.09
  -2  -1 -20  412.06   26.30
  -2  -1 -20  379.06   44.60
  -2   1  20  452.95   41.50
  -2   1  20  377.06   52.59
  -2   1  20  420.16   35.40
  -2   1  20  444.66   25.20
  -2  -1 -20  383.86   29.90
   2   1 -20  388.46   30.60
  -2  -1 -20  415.36   38.10
   2  -1  20  369.46   42.50
  -2  -1 -20  396.06   21.10
   2   1 -20  390.36   30.70
   2  -1  20  393.86   31.30
   2   1 -20  383.86   41.10
   2  -1 -20  432.06   26.80
  -2  -1  20  467.45   26.50
  -2  -1  20  425.76   44.50
   2   1  20  368.36   39.30
   2  -1 -20  458.55   35.90
  -2   1 -20  439.46   28.10
  -2   1 -20  416.56   38.90
  -2  -1  20  408.66   44.50
   2  -1 -20  326.17   40.60
   2  -1 -20  305.77   37.60
  -2   1 -20  399.86   39.60
  -2  -1  20  361.46   29.90
   2  -1 -20  435.26   29.90
   2  -1 -20  460.65   30.30
   2   1  20  327.67   42.10
   2   1  20  408.86   32.10
  -2   1 -20  393.26   31.30
  -3   1  20  186.88   41.00
  -3   1  20  182.68   33.00
   3  -1  20  160.98   20.30
   3   1 -20  163.88   27.30
  -3  -1 -20  183.78   27.30
   3   1 -20  222.88   33.60
   3  -1  20  146.69   27.30
   3  -1  20  148.49   30.60
  -3  -1 -20  206.78   24.20
  -3  -1 -20  212.38   31.60
   3   1 -20  244.28   28.60
   3   1 -20  185.38   27.20
  -3   1 -20  171.78   27.70
   3   1  20  147.79   27.40
  -3  -1  20  186.08   29.00
   3   1  20  199.28   28.60
   3   1  20  171.68   33.90
  -3   1 -20  152.98   23.50
   3  -1 -20  173.68   32.50
  -3   1 -20  204.38   35.20
   3  -1 -20  151.78   23.60
   3  -1 -20  155.28   23.80
   3  -1 -20  194.88   25.80
  -3  -1  20  116.59   36.00
  -3  -1  20  187.08   39.80
  -4   1  20   69.79   38.80
  -4   1  20   73.59   43.80
   4  -1  20   77.19   34.10
   4  -1  20   43.20   36.20
   4   1 -20   82.49   19.20
   4   1 -20   53.09   32.30
  -4  -1 -20    7.30   35.50
   4   1  20   52.29   35.50
  -4   1 -20  108.79   35.80
   4   1  20   58.99   21.80
   4  -1 -20   59.49   20.70
   4  -1 -20   95.89   35.20
  -4  -1  20  109.29   43.10
  -4   1 -20  143.69   40.70
   4   1  20   79.99   38.90
  -4  -1  20  105.89   45.50
   0  -2 -20   11.70   14.90
   0   2  20   15.30   10.90
   0   2 -20   -3.30   12.80
   0  -2 -20  -21.50   10.80
   0   2  20    3.10   12.10
   0  -2 -20    3.60   10.40
   0  -2  20   10.40   14.30
   0  -2  20  -11.00   13.00
   0   2  20   29.00   22.10
   0  -2  20   -2.70   11.20
   0   2  20   13.00    8.20
   0   2 -20  -12.00   13.70
   0  -2  20   26.20   20.20
   0  -2 -20    9.50   12.90
   0   2 -20    9.80   11.70
   0   2  20    0.90   11.90
   0   2 -20   25.30   17.00
   0  -2 -20  -12.10   15.60
   0   2 -20   30.00   12.40
   0  -2 -20  -19.50   14.90
   1   2 -20    4.50   14.30
   1  -2  20   11.10   14.30
   1   2 -20   32.70   13.80
   1   2 -20   18.90   14.10
  -1  -2 -20   21.40   12.50
  -1   2  20    9.30    9.20
   1  -2  20    3.60   11.40
  -1  -2 -20   -3.90   16.80
  -1   2  20    8.50    9.70
  -1  -2 -20   22.80   12.30
  -1  -2 -20    8.30   11.10
   1   2 -20   14.30   13.90
   1  -2  20   24.20   21.20
   1   2 -20    8.60   19.20
  -1   2  20   11.10    8.20
  -1   2  20    7.70   13.70
   1  -2  20   -5.90    9.70
  -1  -2 -20   20.60   10.70
   1   2 -20   14.20   14.90
  -1   2  20   33.50   16.70
   1   2  20   10.60   16.30
  -1   2 -20   -3.90   15.90
   1   2  20   16.30   14.80
  -1  -2  20   27.80   16.40
  -1  -2  20    7.10    8.80
  -1   2 -20   30.20   10.10
  -1   2 -20    5.70   14.20
   1  -2 -20    3.70   11.70
   1  -2 -20   32.60   13.80
   1  -2 -20   10.90   16.20
   1   2  20    2.10   21.60
  -1  -2  20   32.70   16.10
   1  -2 -20   19.10   13.90
   1  -2 -20    1.00   15.00
  -1   2 -20    6.40   13.90
   1   2  20   -1.10   14.90
   1   2  20    3.60   16.80
  -1   2 -20   10.30   13.20
   1  -2 -20   31.90   13.90
  -1  -2  20    9.30   15.50
   2   2 -20  346.77   34.00
  -2  -2 -20  368.76   31.50
   2  -2  20  340.97   46.30
   2   2 -20  364.26   32.20
   2  -2  20  380.56   34.30
  -2  -2 -20  398.96   32.00
  -2  -2 -20  367.26   33.40
  -2  -2 -20  382.06   17.70
  -2  -2 -20  341.67   38.60
   2   2 -20  419.26   37.00
  -2   2  20  409.16   44.00
  -2   2  20  389.86   36.00
   2  -2  20  293.07   37.90
  -2   2  20  408.56   29.40
  -2   2  20  320.17   31.70
  -2  -2 -20  378.66   20.30
   2  -2  20  363.56   16.90
   2   2 -20  348.17   28.50
   2   2  20  399.36   34.10
  -2   2 -20  413.06   31.30
  -2  -2  20  437.66   27.90
  -2   2 -20  356.96   32.40
  -2  -2  20  410.16   38.60
  -2  -2  20  378.66   33.20
   2  -2 -20  379.36   30.70
   2   2  20  393.26   48.50
  -2   2 -20  353.86   41.20
  -2   2 -20  318.27   44.50
  -2  -2  20  427.46   30.60
  -2  -2  20  371.96   24.20
   2  -2 -20  429.06   41.20
   2  -2 -20  317.97   32.90
  -2  -2  20  349.17   23.20
   2   2  20  438.76   39.30
   2  -2 -20  351.26   33.30
   2  -2 -20  362.26   31.40
   2  -2 -20  339.27   27.90
  -3   2  20   -6.60   24.70
  -3  -2 -20   36.40   16.10
   3   2 -20  -11.30   21.10
   3  -2  20   19.40   23.10
   3   2 -20   23.70   17.20
  -3   2  20   29.60   25.20
  -3   2  20   52.59   32.50
  -3  -2 -20  -31.00   23.60
   3  -2  20   -4.50   24.90
   3   2  20   27.10   26.50
   3  -2 -20   60.49   27.80
   3   2  20    2.50   27.50
  -3  -2  20   21.00   31.00
  -3   2 -20   32.30   24.50
   3  -2 -20   27.10   19.00
   3  -2 -20   42.00   20.80
  -3   2 -20   63.69   26.90
  -3  -2  20   -6.30   22.80
   3   2  20   14.70   18.80
   3  -2 -20   40.60   17.70
  -3   2 -20   10.30   16.30
  -3  -2  20   13.10   31.90
   4  -2  20   87.49   33.90
  -4   2  20  135.49   48.30
   4  -2  20   85.79   40.90
  -4   2  20   35.60   52.59
   4   2 -20  113.79   23.70
   4   2 -20   85.39   34.40
  -4  -2 -20  124.19   42.10
  -4  -2  20  117.99   47.80
  -4  -2  20   99.99   45.10
   4   2  20  102.99   26.40
  -4   2 -20  149.29   46.60
   4  -2 -20  104.79   23.30
   4   2  20   83.49   36.90
  -4   2 -20  143.89   41.80
   4  -2 -20  103.29   43.90
  -4  -2  20  164.78   41.80
   0  -3 -20   61.79   18.70
   0   3 -20   60.39   18.70
   0   3  20   51.79   14.10
   0  -3  20   71.59   17.50
   0   3 -20   85.09   17.80
   0   3 -20   72.19   15.80
   0  -3  20   93.49   19.60
   0   3 -20   90.49   24.20
   0  -3  20  137.59   24.10
   0  -3 -20   98.49   20.30
   0  -3 -20   86.19   18.40
   0  -3 -20   38.80   22.00
   1   3 -20   97.59   22.80
   1  -3  20  106.59   32.60
  -1  -3 -20  107.49   23.10
  -1   3  20   89.89   22.10
  -1   3  20  113.79   17.10
  -1   3  20   88.29   15.70
   1  -3  20  115.99   23.10
   1   3 -20   76.69   17.50
   1   3 -20  152.18   28.30
  -1  -3 -20  127.09   27.40
  -1  -3 -20   94.89   16.50
   1   3 -20  107.99   16.70
   1   3 -20  116.49   21.00
  -1  -3 -20   98.69   22.00
  -1   3  20   59.09   18.20
   1  -3 -20  100.79   23.00
  -1  -3  20  110.29   26.40
   1   3  20  134.49   23.30
   1   3  20  174.38   34.70
  -1   3 -20   85.69   26.60
  -1   3 -20  111.29   21.50
   1  -3 -20   80.69   16.70
  -1   3 -20   90.09   15.10
   1  -3 -20   87.99   21.70
   1   3  20   84.19   19.00
  -1   3 -20   80.09   19.10
  -1  -3  20   82.79   18.10
   1  -3 -20  120.89   24.70
   1   3  20   75.39   19.60
  -1  -3  20   81.59   22.90
   1  -3 -20  103.39   24.30
  -1   3 -20   87.79   20.70
   2   3 -20  233.48   35.90
   2  -3  20  250.47   32.70
  -2  -3 -20  284.17   29.60
  -2   3  20  220.18   36.10
  -2   3  20  183.18   32.30
   2   3 -20  226.68   41.40
  -2  -3 -20  178.08   28.60
   2  -3  20  305.27   37.40
   2   3 -20  224.98   33.10
  -2  -3 -20  243.78   37.90
   2   3 -20  228.88   29.90
  -2   3  20  251.37   30.90
   2  -3 -20  235.58   30.40
   2  -3 -20  231.68   35.30
   2   3  20  283.87   37.80
  -2   3 -20  195.28   34.80
  -2   3 -20  223.48   30.60
   2   3  20  227.88   31.70
  -2  -3  20  233.28   25.60
  -2  -3  20  212.18   24.20
  -2   3 -20  244.88   37.30
   2  -3 -20  226.58   28.90
   2  -3 -20  289.87   30.10
  -2  -3  20  226.58   38.80
  -2  -3  20  260.57   40.00
  -2   3 -20  292.07   42.50
  -2   3 -20  250.47   32.00
  -3   3  20   30.30   28.90
  -3  -3 -20   53.29   29.60
  -3  -3 -20   89.29   32.00
   3  -3  20   95.29   31.60
   3  -3  20   29.60   23.90
   3   3 -20   52.39   21.70
   3   3 -20   41.00   20.50
   3   3 -20   84.49   24.50
  -3  -3 -20   91.29   24.60
  -3   3  20   40.30   37.10
  -3   3  20   49.70   27.10
  -3   3 -20  115.19   33.20
  -3  -3  20  149.79   40.70
  -3  -3  20   23.30   32.60
   3  -3 -20   92.69   32.40
   3  -3 -20   72.39   22.00
   3  -3 -20   24.80   19.80
  -3  -3  20   76.19   32.00
   3  -3 -20   85.19   23.00
   3   3  20   45.80   23.40
  -3   3 -20   55.39   30.40
   3   3  20   24.60   33.80
   3   3  20   28.10   26.60
   0  -4  20  243.68   40.90
   0   4 -20  273.37   41.30
   0   4 -20  210.58   33.50
   0   4 -20  186.98   34.30
   0   4 -20  204.08   32.50
   0  -4 -20  221.58   29.60
   0  -4 -20  291.07   35.50
   0  -4  20  298.67   36.50
   0   4 -20  266.67   27.00
   0  -4 -20  195.48   28.50
   0  -4 -20  301.87   42.70
   0   4  20  271.07   34.10
   0   4  20  210.68   28.10
  -1   4  20  329.27   39.20
   1   4 -20  331.87   24.30
  -1  -4 -20  319.17   44.40
  -1   4  20  288.57   20.60
   1  -4  20  363.46   40.00
   1   4 -20  307.27   34.40
  -1  -4 -20  376.36   33.90
  -1  -4 -20  403.06   32.10
   1   4 -20  249.08   42.20
  -1  -4 -20  306.77   32.30
   1  -4  20  271.77   37.20
   1   4 -20  307.77   34.80
  -1   4  20  361.76   34.70
   1   4 -20  232.98   42.90
   1  -4 -20  353.96   43.30
  -1  -4  20  353.66   34.40
  -1   4 -20  326.07   36.60
  -1  -4  20  364.76   42.80
  -1   4 -20  369.86   47.80
   1   4  20  389.76   37.90
   1  -4 -20  277.17   44.00
  -1   4 -20  413.36   31.10
   1   4  20  317.97   36.60
  -1   4 -20  340.77   36.90
  -1   4 -20  307.97   35.10
   1  -4 -20  286.27   33.30
   1  -4 -20  294.97   34.10
   2  -4  20  450.75   47.20
  -2  -4 -20  255.37   35.20
   2   4 -20  252.97   39.00
   2   4 -20  330.07   37.40
   2   4 -20  333.17   42.50
  -2  -4 -20  385.36   40.40
  -2  -4 -20  342.97   35.50
  -2   4  20  350.36   42.30
   2  -4  20  440.56   44.10
  -2   4  20  427.36   54.39
   2  -4 -20  358.06   43.50
  -2   4 -20  366.26   40.10
   2   4  20  472.05   47.60
  -2   4 -20  317.37   45.00
  -2  -4  20  384.36   34.70
   2  -4 -20  308.27   38.30
   2  -4 -20  381.26   36.00
   2  -4 -20  329.97   47.90
   2   4  20  389.06   43.30
  -2  -4  20  267.97   43.50
  -2  -4  20  365.56   32.90
  -2  -4  20  385.86   53.59
  -2   4 -20  327.47   45.20
   3   4 -20   53.29   25.00
   3  -4  20   52.19   33.30
   3   4 -20   32.40   31.30
   3   4 -20   23.70   26.10
  -3  -4 -20   87.49   32.00
  -3   4  20  -23.70   41.70
   3   4  20   60.09   37.40
   3  -4 -20   36.60   26.30
  -3  -4  20   54.99   36.30
  -3   4 -20   26.40   34.00
  -3   4 -20   41.10   36.90
   3  -4 -20  -19.70   30.10
   3   4  20   38.30   27.10
  -3  -4  20  114.79   36.40
   3  -4 -20   52.59   25.90
   0  -5 -20  240.18   33.10
   0  -5 -20  211.28   33.50
   0  -5  20  261.77   36.40
   0   5  20  246.48   37.80
   0  -5 -20  231.98   42.90
   0  -5  20  216.58   39.00
   0   5 -20  277.27   40.40
   0  -5 -20  205.68   29.60
   0   5 -20  222.48   37.50
   0   5 -20  236.48   37.70
   0   5  20  256.77   33.10
  -1   5  20  255.77   36.90
  -1  -5 -20  206.68   28.60
   1   5 -20  192.18   33.00
   1  -5  20  245.68   38.60
  -1  -5 -20  236.58   33.40
  -1  -5 -20  290.57   47.40
   1  -5  20  229.78   36.60
   1   5 -20  224.78   36.60
  -1   5  20  183.08   31.70
  -1  -5 -20  274.27   39.70
   1  -5  20  292.97   41.80
  -1  -5 -20  198.98   30.90
   1   5 -20  203.08   33.30
   1  -5 -20  141.69   34.90
  -1   5 -20  154.88   31.30
  -1  -5  20  257.27   39.50
  -1   5 -20  165.98   36.60
  -1  -5  20  250.47   37.20
   1   5  20  156.08   28.50
   1   5  20  228.78   33.50
  -1   5 -20  288.87   37.80
  -1   5 -20  223.08   35.60
   1  -5 -20  261.27   34.40
  -1  -5  20  193.28   30.00
   1  -5 -20  168.08   36.70
  -1   5 -20  193.08   36.90
   1  -5 -20  238.08   33.70
   2   5 -20  332.47   47.20
  -2  -5 -20  231.08   32.00
  -2  -5 -20  303.67   43.20
   2  -5  20  290.37   49.50
   2  -5  20  248.98   40.40
   2   5 -20  304.07   44.70
  -2  -5 -20  273.67   45.00
   2   5 -20  226.38   38.50
  -2   5  20  241.88   46.10
  -2   5  20  265.07   46.00
  -2   5 -20  276.17   41.40
   2  -5 -20  319.87   43.60
  -2   5 -20  244.28   41.90
   2  -5 -20  228.38   40.90
  -2  -5  20  234.78   41.20
  -2  -5  20  283.57   40.80
  -2   5 -20  226.68   42.10
   2   5  20  263.77   47.50
   2  -5 -20  186.88   31.60
   2   5  20  266.47   43.90
  -2   5 -20  230.68   33.60
   2  -5 -20  304.97   53.69
  -2  -5  20  281.97   50.59
   0  -6 -20   69.59   35.50
   0   6 -20   68.79   32.10
   0   6 -20  110.99   41.70
   0   6  20  156.98   34.30
   0   6 -20   31.60   34.80
   0  -6 -20  139.09   36.30
   0  -6 -20   69.29   29.60
   0  -6  20   94.09   34.20
   0  -6 -20  107.89   41.50
   0  -6  20  157.98   36.80
   0  -6  20  103.09   37.40
  -1  -6 -20  115.29   35.30
  -1  -6 -20   82.69   33.40
  -1   6  20  109.09   30.50
   1   6 -20   54.59   31.70
  -1   6  20   55.79   34.30
   1   6 -20  148.79   41.30
   1  -6  20  152.88   36.10
   1  -6  20  209.28   58.29
   1   6 -20   79.59   35.90
   1  -6 -20  125.29   40.30
  -1  -6  20  147.39   32.70
   1   6  20  165.08   36.50
   1  -6 -20   87.29   37.60
  -1  -6  20  173.18   42.50
  -1   6 -20   86.99   33.80
  -1  -6  20  135.19   36.10
  -1   6 -20  121.99   37.50
  -1   6 -20   73.89   33.90
   1   6  20   97.39   33.60
   1  -6 -20  135.09   34.20
   1  -6 -20   86.99   35.80
  -1  -6  20  159.18   34.10
   0   0  21  -23.80   14.30
   0   0  21    4.50   15.90
   0   0 -21   23.10   12.70
   0   0  21   -1.20   10.90
   0   0  21   33.70   13.10
   0   0 -21   11.00   10.20
   0   0 -21    0.30   10.10
   0   0  21   16.70   10.80
   0   0 -21   22.00   15.60
   0   0 -21  -11.30   15.00
   0   0  21   -6.00   11.30
   0   0 -21    2.20   11.10
  -1   0 -21   65.19   18.20
  -1   0 -21   73.99   15.60
   1   0 -21   76.59   16.30
  -1   0  21   71.79   20.60
   1   0  21   76.29   16.00
   1   0 -21   89.19   17.20
  -1   0 -21   84.69   14.50
  -1   0  21   74.99   14.90
   1   0  21   78.49   19.80
   1   0 -21   77.89   15.50
  -1   0  21   71.79   19.50
   1   0 -21   63.39   14.70
   1   0  21  101.29   23.70
  -1   0  21   81.09   14.80
   1   0 -21   54.69   17.10
   1   0  21   76.19   17.90
  -1   0 -21   65.39   14.80
   1   0 -21   49.40   15.30
  -1   0  21   56.29   16.60
   1   0  21   58.69   14.60
  -1   0  21   91.69   13.10
   1   0  21   66.29   15.70
   2   0 -21   25.10   14.50
  -2   0  21   55.69   14.00
   2   0 -21   28.70   15.10
   2   0  21   59.89   20.00
   2   0 -21    9.00   18.50
   2   0  21   38.10   14.00
   2   0  21   20.00   14.50
  -2   0  21   28.30   18.70
  -2   0  21   47.20   23.70
   2   0  21   50.49   25.50
   2   0 -21   27.10   13.50
  -2   0  21   46.70   14.10
   2   0  21   43.80   21.50
   2   0 -21   19.90   14.00
  -2   0 -21   38.60   16.20
  -2   0 -21   33.30   11.50
  -2   0 -21   77.39   24.00
  -2   0 -21   48.50   20.40
  -2   0  21   48.20   19.70
   2   0 -21   52.99   16.30
  -3   0 -21  142.59   25.00
  -3   0  21  189.08   34.00
   3   0 -21  182.08   26.40
   3   0  21  123.69   30.80
  -3   0 -21  130.49   28.00
  -3   0 -21  177.18   24.70
  -3   0  21  154.28   38.80
   3   0  21  230.08   35.10
   3   0 -21  135.99   21.50
   3   0  21  179.68   24.50
  -3   0  21  141.89   23.10
   3   0 -21  155.68   23.40
   3   0 -21  141.89   26.90
  -4   0  21  -28.00   39.10
   4   0 -21  -30.00   29.60
  -4   0  21    4.30   36.60
  -4   0 -21  -27.30   39.00
   4   0 -21    2.20   19.20
   4   0  21   78.79   33.90
   4   0  21   29.70   34.00
   0   1 -21   24.60   17.90
   0  -1 -21    7.00   16.80
   0  -1  21   26.50   14.30
   0  -1 -21   18.50   15.40
   0   1 -21   11.20   17.70
   0   1 -21   17.50   12.90
   0  -1 -21    1.10   10.10
   0   1  21   17.00   11.00
   0   1  21    2.80   11.70
   0  -1 -21    4.90   11.60
   0   1  21  -11.20   11.80
   0  -1  21    2.20   14.50
   0  -1 -21   -0.20   12.70
   0   1 -21    8.80   11.40
   0  -1  21    5.10   13.20
   0   1  21  -29.90   19.50
   0   1 -21   18.20   11.40
   0   1  21   12.90   11.30
   0  -1  21    9.50   22.50
   0   1  21   11.30   13.10
   0  -1 -21   11.30   10.20
  -1  -1 -21  106.19   22.00
   1   1 -21   99.39   18.40
  -1  -1 -21  126.49   17.80
   1   1 -21  176.48   27.40
  -1   1  21  156.98   25.90
   1   1 -21  209.28   27.00
  -1   1  21  125.49    8.10
   1   1 -21  102.79   18.70
  -1  -1 -21  129.09   21.40
   1  -1  21  147.09   25.30
   1  -1  21  121.19   20.00
   1  -1  21  164.08   26.40
   1  -1  21  152.08   21.00
  -1  -1 -21  133.19   19.30
  -1   1  21  147.99   12.50
   1  -1  21  156.98   25.20
  -1   1  21  116.39   20.50
   1   1 -21  134.89   23.00
  -1   1  21  122.69   18.30
   1   1 -21  165.48   24.70
   1  -1  21  169.68   24.10
  -1   1  21  173.78   29.20
  -1   1 -21  126.39   22.10
  -1  -1  21  175.18   25.80
   1   1  21  161.98   24.90
  -1  -1  21  184.68   28.30
  -1   1 -21  147.09   22.20
  -1  -1  21  130.39   15.80
   1  -1 -21  180.88   23.50
   1  -1 -21  114.29   19.60
   1   1  21  189.88   23.90
  -1  -1  21  160.78   22.80
  -1  -1  21  188.58   22.80
  -1  -1  21  151.38   25.10
  -1   1 -21  163.88   20.00
  -1   1 -21  162.28   22.60
  -1   1 -21  155.38   21.50
   1  -1 -21  111.39   18.80
   1  -1 -21  153.48   26.40
   1  -1 -21  139.49   24.70
   1   1  21  161.38   27.80
   1   1  21  203.98   29.80
  -1  -1  21  167.88   24.10
  -2  -1 -21  122.69   19.90
   2  -1  21  161.88   22.00
   2  -1  21  114.19   16.30
   2   1 -21  179.78   30.80
  -2   1  21  104.99   28.20
  -2   1  21  148.79   21.90
  -2   1  21  111.09   23.00
  -2  -1 -21  159.38   15.90
  -2  -1 -21  176.48   26.00
   2   1 -21  170.38   27.90
   2  -1  21  111.09   21.40
  -2   1  21  154.88   25.50
  -2  -1 -21  131.49   21.10
   2  -1  21  119.39   24.50
   2  -1  21  134.79   28.40
   2   1 -21  133.79   21.80
  -2  -1 -21  147.89   21.60
   2   1 -21  134.89   22.20
   2   1  21  128.59   25.60
  -2  -1  21  150.38   25.40
   2  -1 -21  170.88   27.10
   2  -1 -21  133.59   19.30
   2  -1 -21  116.49   18.90
  -2  -1  21  188.68   24.70
  -2   1 -21  121.79   18.30
  -2  -1  21  111.89   33.70
  -2   1 -21  148.69   21.10
  -2   1 -21  131.49   22.70
  -2   1 -21  103.19   24.00
   2   1  21  146.49   28.20
   2  -1 -21  130.59   20.90
   2  -1 -21  107.89   20.90
   2   1  21  132.29   23.90
   2  -1 -21  145.99   23.10
  -2  -1  21  154.98   26.70
   2   1  21  145.39   24.70
  -3  -1 -21   77.39   19.30
   3   1 -21   56.29   17.50
   3  -1  21   51.59   14.20
  -3  -1 -21   47.40   28.40
   3   1 -21   11.00   21.30
   3   1 -21   59.79   18.10
  -3   1  21   46.50   26.10
   3   1 -21   73.99   17.70
  -3  -1 -21   63.19   16.90
   3  -1  21   42.20   22.90
   3  -1  21   -2.10   22.50
  -3   1  21    9.50   31.20
  -3   1 -21   54.99   23.40
   3  -1 -21   43.40   18.10
   3   1  21   79.69   24.70
  -3  -1  21   43.00   21.60
   3  -1 -21   73.09   29.30
  -3  -1  21   24.70   31.60
   3   1  21   47.20   26.90
   3  -1 -21   33.70   17.60
  -3   1 -21   36.50   16.10
   3  -1 -21   49.00   16.30
   3   1  21   37.90   17.30
  -3   1 -21   81.79   28.00
  -3  -1  21   81.09   29.70
   4  -1  21  219.18   38.50
  -4  -1 -21  283.47   48.30
   4   1 -21  336.57   56.79
   4  -1  21  222.88   42.60
  -4   1  21  276.17   49.20
   4   1 -21  273.07   31.90
  -4   1  21  186.58   56.49
   4   1  21  200.08   48.10
  -4   1 -21  215.18   48.10
   4   1  21  265.07   43.10
   4  -1 -21  292.57   34.50
  -4  -1  21  306.27   55.59
  -4   1 -21  385.66   60.09
  -4  -1  21  269.57   53.69
   4  -1 -21  238.58   42.80
   0  -2  21  166.88   26.10
   0  -2 -21  209.88   24.80
   0  -2 -21  188.28   24.00
   0  -2 -21  255.77   31.10
   0   2 -21  201.68   20.10
   0   2 -21  220.08   25.40
   0   2  21  210.48   15.80
   0  -2  21  325.27   58.79
   0   2 -21  184.38   25.40
   0   2  21  149.69   24.50
   0  -2  21  175.08   23.80
   0  -2 -21  190.18   31.20
   0  -2 -21  230.88   29.20
   0  -2 -21  166.98   26.50
   0   2  21  162.48   25.20
   0   2 -21  166.18   24.50
   0   2  21  181.28   22.50
   0   2 -21  201.88   31.00
   0  -2  21  202.48   27.70
   1   2 -21  162.28   29.60
  -1  -2 -21  218.28   25.20
  -1  -2 -21  234.98   24.60
  -1  -2 -21  166.08   24.80
   1   2 -21  187.38   28.20
  -1  -2 -21  199.88   24.60
   1  -2  21  170.88   21.00
  -1   2  21  216.48   30.10
  -1  -2 -21  205.68   20.90
   1  -2  21  211.78   26.30
   1   2 -21  192.88   26.90
   1   2 -21  231.98   27.70
  -1   2  21  196.98   18.80
  -1   2  21  217.58   17.00
  -1   2  21  224.78   32.10
   1  -2  21  231.68   27.10
   1   2 -21  246.98   31.70
  -1   2  21  192.58   19.30
   1  -2  21  308.77   43.60
   1   2  21  186.78   31.80
  -1   2 -21  202.08   27.20
  -1   2 -21  224.48   27.40
  -1  -2  21  179.88   26.90
   1   2  21  147.59   22.80
   1   2  21  182.08   30.00
   1  -2 -21  167.88   25.80
   1   2  21  193.48   27.80
  -1  -2  21  208.88   29.00
  -1  -2  21  177.98   28.90
  -1   2 -21  196.18   21.70
  -1  -2  21  182.88   20.10
  -1   2 -21  224.68   26.20
   1  -2 -21  225.08   24.50
   1  -2 -21  163.88   23.80
   1  -2 -21  291.07   31.70
  -1   2 -21  220.08   30.20
   1   2  21  202.18   27.00
   2   2 -21   61.79   19.10
   2  -2  21   47.00   21.50
  -2  -2 -21   90.39   19.20
  -2  -2 -21   63.79   17.80
  -2  -2 -21   57.39   12.10
  -2   2  21   56.39   25.00
   2  -2  21    6.70   22.30
  -2   2  21   49.80   17.30
   2   2 -21   44.20   17.90
  -2  -2 -21   52.39    9.90
  -2  -2 -21   34.40   18.10
  -2   2  21   45.50   17.80
  -2   2  21   36.50   19.30
   2  -2  21   25.00   30.20
  -2  -2 -21   34.60   22.20
   2  -2  21   64.29    9.80
   2   2 -21   59.49   20.40
   2   2 -21   51.79   17.50
  -2  -2  21   37.50   19.70
   2  -2 -21   48.20   16.10
  -2  -2  21   79.09   15.10
  -2   2 -21   49.99   18.00
   2  -2 -21   38.30   15.30
  -2  -2  21   43.10   26.90
  -2  -2  21   63.69   22.10
  -2  -2  21   50.69   11.30
   2  -2 -21   33.40   17.00
   2   2  21   79.49   22.80
   2   2  21   36.60   26.40
  -2   2 -21    0.80   21.90
   2  -2 -21   60.89   19.60
  -2  -2  21   41.10   17.70
   2   2  21   87.29   28.70
   2   2  21   50.99   19.70
   2  -2 -21   55.99   21.20
  -2   2 -21   71.69   16.50
  -2   2 -21   41.50   21.70
   2  -2 -21   52.69   13.60
   3  -2  21  264.17   44.60
  -3   2  21  294.27   47.70
   3  -2  21  333.57   41.90
   3   2 -21  226.28   34.80
   3   2 -21  262.27   33.60
   3   2 -21  289.87   34.50
  -3   2  21  355.36   60.89
  -3   2  21  287.97   45.30
  -3  -2 -21  305.77   44.50
  -3  -2 -21  312.67   31.70
   3  -2 -21  331.17   32.00
  -3   2 -21  198.48   35.60
   3  -2 -21  273.57   33.90
   3   2  21  355.56   51.99
   3  -2 -21  352.66   46.30
   3   2  21  369.36   46.80
  -3  -2  21  417.46   57.99
   3   2  21  296.77   39.50
  -3   2 -21  421.06   45.90
   3  -2 -21  319.97   32.70
   0   3 -21   13.90   13.70
   0   3 -21   14.90   15.70
   0   3  21   30.40   14.00
   0  -3 -21   13.30   18.10
   0  -3  21   30.30   16.10
   0  -3  21   23.50   16.60
   0  -3 -21    3.30   11.70
   0  -3  21   18.00   15.70
   0   3  21   45.20   14.50
   0  -3 -21    4.60   21.90
   0   3 -21   18.80   22.50
   0   3 -21   46.50   16.80
   0  -3 -21   30.90   18.10
   0  -3  21   23.90   17.90
   0   3 -21    2.70   14.00
   0  -3 -21   15.40   17.10
   0  -3 -21    2.90   14.70
  -1  -3 -21  147.19   29.80
  -1   3  21  168.68   22.00
  -1   3  21  162.58   19.70
  -1  -3 -21  224.78   27.10
   1   3 -21  141.39   19.40
  -1   3  21  191.38   29.90
   1   3 -21  147.39   28.00
  -1   3  21  174.18   29.30
   1   3 -21  180.48   28.60
  -1  -3 -21  176.48   26.90
   1  -3  21  123.29   32.70
   1   3 -21  203.28   29.80
   1  -3  21  218.18   30.70
   1   3  21  180.38   36.70
  -1   3 -21  191.38   29.20
   1   3  21  231.58   31.80
  -1   3 -21  215.98   29.10
  -1   3 -21  143.79   27.50
   1  -3 -21  158.58   23.60
  -1   3 -21  183.38   41.00
  -1  -3  21  162.28   23.40
   1  -3 -21  270.47   35.30
  -1   3 -21  203.88   25.70
   1  -3 -21  148.69   24.70
  -1  -3  21  206.38   32.40
  -1  -3  21  251.37   38.40
   1  -3 -21  178.08   26.00
   1   3  21  170.78   29.30
  -2   3  21  267.67   41.90
   2  -3  21  316.07   37.70
   2   3 -21  257.87   32.10
  -2  -3 -21  252.57   42.60
  -2   3  21  250.07   35.50
   2   3 -21  226.68   33.90
   2   3 -21  270.37   35.40
   2  -3  21  244.88   34.20
  -2   3  21  241.58   31.30
   2   3  21  187.38   30.70
  -2   3 -21  236.38   38.30
  -2  -3  21  215.88   26.00
  -2  -3  21  300.27   50.59
  -2   3 -21  221.68   35.70
   2  -3 -21  257.87   36.80
   2   3  21  267.57   35.50
   2  -3 -21  215.08   29.90
  -2   3 -21  218.78   32.20
   2  -3 -21  244.98   31.10
  -2  -3  21  263.17   27.20
   2   3  21  275.07   39.90
  -2  -3  21  251.97   39.10
   2  -3 -21  235.48   39.30
  -2  -3  21  255.47   33.80
  -2   3 -21  191.28   34.00
   3   3 -21  106.39   27.70
   3  -3  21  109.49   28.60
  -3  -3 -21  116.79   35.00
  -3   3  21  112.99   42.10
   3  -3  21  182.38   34.60
   3   3 -21  125.39   29.30
   3   3 -21   80.29   24.50
  -3   3  21  168.08   45.10
  -3   3  21  132.29   29.50
   3  -3 -21  128.59   26.70
   3   3  21  107.69   39.30
  -3  -3  21  216.08   46.50
  -3  -3  21   97.09   32.90
   3  -3 -21  100.59   23.60
   3  -3 -21  110.39   23.70
   3   3  21  154.08   27.40
  -3   3 -21  177.48   36.10
  -3   3 -21  160.68   38.10
   3  -3 -21  140.19   34.10
  -3  -3  21   48.40   38.30
   3   3  21   71.59   31.80
   0   4 -21  457.35   41.50
   0  -4 -21  425.96   46.10
   0  -4 -21  392.56   34.40
   0  -4 -21  387.96   36.60
   0  -4 -21  445.86   40.10
   0  -4  21  462.15   42.40
   0   4  21  391.06   38.90
   0   4 -21  392.86   39.30
   0  -4  21  466.85   42.10
   0   4 -21  411.96   38.30
   0  -4  21  431.96   36.70
   0   4 -21  405.76   32.20
   0   4  21  435.76   32.30
   0   4 -21  440.56   48.40
  -1   4  21   31.90   11.90
  -1   4  21   27.00   22.20
  -1  -4 -21   -0.80   16.20
  -1   4  21    1.40   15.10
   1  -4  21   43.30   23.50
  -1  -4 -21   19.00   16.60
  -1  -4 -21   41.40   24.50
   1   4 -21   73.79   19.30
   1   4 -21   44.20   20.60
   1   4 -21   29.90   24.80
  -1  -4 -21   19.20   18.80
   1   4 -21   22.70   15.20
   1  -4  21   63.19   26.50
  -1   4 -21   21.90   20.80
   1   4  21   57.19   22.00
   1  -4 -21  -14.80   22.40
   1  -4 -21   68.39   20.00
  -1  -4  21   60.39   21.40
   1  -4 -21   25.20   23.10
  -1   4 -21   43.60   20.30
  -1   4 -21   12.30   28.70
   1   4  21   38.10   24.50
   1  -4 -21   25.80   17.50
  -1  -4  21   36.00   26.80
  -1   4 -21   51.99   16.80
  -2  -4 -21   72.99   24.80
   2   4 -21  133.59   25.30
  -2   4  21   79.39   27.20
   2  -4  21   80.49   30.60
  -2   4  21  135.29   36.20
   2  -4  21  132.59   29.80
   2   4 -21   86.09   28.20
   2   4 -21   87.49   27.10
  -2  -4  21   69.29   21.70
  -2   4 -21   99.39   28.90
   2   4  21  130.49   28.20
  -2  -4  21  116.49   29.90
   2   4  21   83.09   30.00
   2  -4 -21   60.19   24.80
   2  -4 -21  114.69   25.00
  -2   4 -21   88.89   28.20
   2  -4 -21   91.09   31.70
   2  -4 -21  147.89   28.90
  -2  -4  21  130.59   21.10
  -2  -4  21  134.99   34.70
  -2   4 -21   92.49   29.40
  -2   4 -21   80.39   25.10
  -3   4  21   64.39   31.80
  -3   4  21   86.19   46.50
   3   4 -21  134.39   31.50
   3   4 -21   41.40   33.20
   3   4 -21  139.39   27.10
  -3  -4 -21  162.58   39.00
   3  -4  21  190.68   42.20
   3  -4  21  119.09   36.40
   3  -4 -21  127.09   31.30
  -3   4 -21   90.79   37.00
   3   4  21  157.38   41.00
   3  -4 -21   70.39   34.40
   3   4  21  151.88   32.10
   3  -4 -21   71.89   27.20
  -3  -4  21  144.69   39.20
  -3  -4  21   71.39   40.70
  -3   4 -21   93.29   42.40
   3  -4 -21  138.99   31.90
   0   5 -21   56.59   28.60
   0  -5 -21   24.60   21.70
   0  -5 -21   72.69   35.40
   0   5  21   92.19   27.90
   0   5 -21   40.30   30.90
   0   5  21   23.30   20.90
   0   5 -21   75.79   25.90
   0  -5 -21   78.99   25.80
   0   5 -21   43.90   28.60
   0  -5  21   60.69   24.00
   0  -5 -21   56.19   21.70
   0  -5  21   29.20   25.80
  -1  -5 -21  151.18   37.20
  -1  -5 -21   70.59   27.40
  -1   5  21   87.59   29.90
  -1   5  21   82.69   26.20
   1  -5  21   70.89   31.40
   1   5 -21   46.60   26.10
  -1  -5 -21   65.89   23.50
   1  -5  21   31.80   27.30
   1  -5  21  144.19   28.40
   1   5 -21   96.09   32.70
   1   5 -21   84.89   27.00
  -1  -5 -21   31.60   24.20
  -1  -5  21   58.69   25.40
   1  -5 -21   74.19   32.60
   1  -5 -21   86.19   35.20
  -1   5 -21  110.49   27.80
  -1  -5  21   90.19   27.50
   1   5  21   49.60   24.60
  -1   5 -21   75.59   29.20
  -1  -5  21   69.69   31.40
  -1   5 -21   76.19   28.20
   1   5  21   77.59   23.80
   1  -5 -21   65.49   23.50
  -1   5 -21  100.29   23.20
   1  -5 -21   68.49   25.80
  -1   5 -21   76.59   35.50
  -2   5  21  169.98   43.30
   2  -5  21  161.38   34.50
   2   5 -21  184.78   34.00
  -2  -5 -21  216.08   34.60
  -2  -5 -21  206.68   35.90
  -2   5  21  243.28   34.10
  -2  -5 -21  231.78   41.00
   2   5 -21  179.98   35.90
   2   5 -21  267.47   48.10
   2  -5 -21  130.39   32.80
   2  -5 -21  137.99   35.30
   2  -5 -21  280.87   44.30
   2  -5 -21  157.88   40.90
  -2  -5  21  134.79   43.30
  -2  -5  21  198.78   32.20
  -2   5 -21  160.28   37.60
   2   5  21  149.69   35.00
  -2   5 -21  240.58   38.70
   2   5  21  164.48   38.00
  -2  -5  21  180.58   38.20
   0   6 -21    0.50   32.70
   0  -6 -21   -9.50   34.10
   0  -6  21   23.60   36.40
   0  -6 -21   23.30   28.70
   0  -6 -21   65.79   32.50
   0   6  21   -1.60   28.30
   0  -6 -21  -80.49   40.40
   0  -6  21   49.70   32.80
   0   6 -21   72.79   42.20
   0   0 -22  427.26   30.10
   0   0  22  496.75   33.90
   0   0  22  454.45   40.10
   0   0 -22  442.76   30.80
   0   0  22  417.36   33.50
   0   0 -22  468.45   33.20
   0   0  22  446.16   30.60
   0   0 -22  419.06   31.80
   0   0 -22  405.66   36.00
   0   0  22  444.96   29.40
  -1   0  22   25.10    9.20
  -1   0  22   23.70   13.00
   1   0 -22   27.60   13.90
   1   0 -22    6.50   12.10
   1   0  22   20.00   12.30
  -1   0 -22    5.10   16.60
   1   0  22   32.10   19.40
  -1   0 -22   22.60   12.70
   1   0 -22   20.90   12.00
  -1   0  22   15.20   16.70
   1   0  22   20.40   19.60
   1   0  22   43.40   16.50
   1   0 -22    4.60   14.70
  -1   0  22   21.80   18.90
   1   0  22   33.70   14.60
   1   0 -22   17.50   13.80
  -1   0 -22   29.00   13.10
  -1   0 -22   10.90   10.80
   1   0  22   26.20   15.20
   1   0  22   36.70   13.90
   2   0 -22  295.07   28.50
   2   0 -22  281.57   36.20
  -2   0  22  304.17   37.70
  -2   0 -22  276.87   29.60
   2   0  22  243.68   24.40
  -2   0 -22  239.48   23.30
   2   0 -22  304.77   28.30
   2   0  22  288.17   31.80
  -2   0  22  297.27   23.40
  -2   0 -22  276.97   38.10
   2   0  22  279.37   43.20
  -2   0 -22  246.28   33.30
  -2   0  22  269.77   42.10
   2   0 -22  259.37   31.40
   2   0  22  231.58   24.60
   2   0 -22  235.48   32.40
  -2   0  22  289.57   26.00
   3   0 -22   56.69   24.80
   3   0  22   55.19   31.70
  -3   0  22   86.19   31.20
  -3   0 -22   58.69   21.90
   3   0  22   42.70   15.60
  -3   0 -22   79.19   18.10
  -3   0 -22   60.39   28.40
   3   0 -22   38.80   24.30
   3   0 -22   72.09   30.20
   3   0 -22   89.39   21.60
   3   0  22   66.09   25.80
  -3   0  22  103.79   36.40
  -4   0  22  107.09   50.19
  -4   0 -22  154.08   46.60
   4   0  22   98.99   38.50
   4   0 -22   54.39   31.70
   4   0  22  130.49   41.60
  -4   0  22  134.29   45.50
   4   0 -22  122.89   22.50
   0  -1  22   13.30   13.00
   0   1  22  -18.00   13.90
   0  -1  22   -6.40   13.50
   0  -1  22   -3.40   12.40
   0  -1 -22   -6.10   14.60
   0   1 -22   -6.80   16.20
   0   1 -22  -10.20   13.00
   0  -1 -22   51.79   16.00
   0   1 -22   -6.70   15.00
   0  -1 -22    9.90   13.70
   0   1  22    9.80   11.90
   0   1 -22  -10.00    9.80
   0  -1 -22   12.60   12.90
   0  -1 -22    9.40   12.80
   0   1  22  -24.90   21.30
   0   1 -22   15.70   12.70
   0   1  22  -20.30   11.30
   0  -1  22   41.30   21.50
   0  -1 -22   19.00   11.90
   0   1  22  -15.10   12.20
   0   1  22    5.00   11.50
   1   1 -22 1050.09   53.99
  -1   1  22  950.40   52.29
   1  -1  22 1019.60   47.30
  -1   1  22  981.90   54.29
   1   1 -22  946.01   46.70
   1  -1  22  981.30   48.20
  -1   1  22  996.80   37.20
  -1   1  22 1010.50   41.20
  -1   1  22  979.30   26.70
   1   1 -22 1007.00   52.89
  -1  -1 -22 1025.20   47.20
   1  -1  22  908.51   48.60
   1  -1  22 1019.20   52.09
   1   1 -22 1052.79   44.60
   1  -1  22 1089.99   59.69
   1   1 -22 1015.20   48.10
  -1  -1 -22 1000.20   41.90
  -1  -1 -22  982.90   54.39
  -1  -1 -22  982.30   45.70
   1  -1  22 1014.00   43.20
   1   1 -22 1061.39   51.09
   1   1  22 1046.50   49.30
  -1  -1  22  957.60   46.80
   1   1  22 1058.09   53.99
  -1   1 -22  982.80   55.39
   1   1  22  956.80   55.69
   1  -1 -22  982.30   50.89
  -1  -1  22  988.10   54.79
   1   1  22 1010.80   49.10
  -1   1 -22 1025.40   44.40
   1   1  22 1018.70   48.80
  -1   1 -22  899.71   43.60
  -1   1 -22 1025.80   48.20
   1  -1 -22 1014.80   44.90
  -1  -1  22  929.81   48.90
  -1   1 -22 1022.50   45.50
  -1  -1  22 1054.79   54.59
   1  -1 -22  984.00   47.10
   1  -1 -22  999.80   51.29
  -1  -1  22  958.30   37.40
   1  -1 -22 1010.70   46.20
  -2  -1 -22   79.99   24.00
  -2   1  22  184.88   29.40
   2   1 -22  112.69   21.10
   2  -1  22  108.19   17.00
  -2   1  22  132.69   27.50
  -2  -1 -22  120.39   20.70
   2   1 -22  137.49   27.20
  -2  -1 -22  171.98   25.80
  -2  -1 -22  127.89   21.00
   2  -1  22   85.29   27.40
   2  -1  22   77.59   27.30
   2  -1  22  144.59   26.70
  -2   1  22   84.69   27.00
  -2  -1 -22  140.19   17.50
   2  -1  22  180.08   23.30
   2   1 -22  123.69   21.40
   2   1 -22  152.78   23.80
   2  -1  22   88.19   21.30
  -2   1  22  127.19   18.30
   2   1  22  142.09   24.30
   2  -1 -22  102.19   22.50
  -2  -1  22  102.09   24.80
  -2  -1  22  165.18   25.70
   2  -1 -22   78.39   18.50
   2  -1 -22   95.39   20.80
   2  -1 -22  124.49   18.50
   2  -1 -22  103.59   22.20
  -2  -1  22   98.59   32.50
  -2   1 -22  137.89   29.00
  -2  -1  22  127.59   21.50
  -2   1 -22  120.69   19.60
  -2   1 -22  169.18   24.60
   2  -1 -22  102.19   23.70
   2   1  22  127.79   29.50
   2   1  22  136.49   23.90
   2   1  22  159.18   29.50
  -2   1 -22  108.09   24.00
   3  -1  22  362.16   51.99
  -3   1  22  440.96   50.99
   3  -1  22  430.36   45.00
  -3   1  22  389.46   59.99
   3  -1  22  474.45   29.70
  -3   1  22  493.05   51.99
   3   1 -22  435.06   37.80
  -3  -1 -22  350.16   48.50
   3   1 -22  398.56   37.00
  -3  -1 -22  520.45   34.80
   3   1 -22  466.65   37.00
   3   1 -22  498.55   48.10
   3  -1 -22  448.06   38.20
   3  -1 -22  316.67   38.70
  -3  -1  22  521.45   43.40
  -3   1 -22  464.65   49.60
   3  -1 -22  393.96   39.50
  -3   1 -22  330.87   32.00
  -3  -1  22  404.76   56.89
  -3  -1  22  525.55   54.09
   3   1  22  422.96   37.90
   3   1  22  392.06   47.80
   3  -1 -22  450.95   50.39
  -3   1 -22  453.65   45.20
   3   1  22  448.16   47.10
   4   1 -22   56.29   36.70
   4  -1  22   47.70   33.10
   4  -1  22  -29.80   32.50
  -4   1  22   96.59   45.60
   4   1 -22  -11.90   20.90
  -4   1  22  -42.40   60.19
  -4  -1 -22   49.00   38.40
   4   1  22  -40.30   38.20
  -4  -1  22  -58.99   43.20
   4   1  22    2.50   22.80
   0  -2  22  431.36   33.20
   0   2  22  460.05   30.50
   0   2 -22  473.25   28.80
   0   2  22  492.65   36.70
   0   2 -22  486.25   34.70
   0  -2 -22  490.35   42.60
   0  -2 -22  529.05   40.50
   0  -2 -22  417.46   32.70
   0  -2  22  466.45   32.40
   0   2 -22  519.95   44.60
   0   2  22  487.45   22.70
   0  -2 -22  503.25   38.00
   0   2 -22  501.75   35.30
   0   2  22  463.55   33.20
   0   2 -22  465.75   33.20
   0  -2 -22  425.76   33.70
   0  -2  22  480.65   37.30
   0  -2 -22  487.55   35.30
  -1   2  22   48.40   11.70
  -1   2  22   46.50   11.90
   1  -2  22   37.00   29.60
   1   2 -22   14.70   16.50
   1   2 -22   35.80   21.00
   1  -2  22   20.70   14.80
  -1   2  22   52.39   20.70
  -1  -2 -22   27.30   15.80
  -1  -2 -22   38.10   16.70
   1  -2  22   50.09   17.20
  -1  -2 -22   51.59   17.90
   1   2 -22   50.09   20.30
  -1   2  22   38.30   11.30
  -1   2  22   24.90   14.90
   1  -2  22   76.09   18.20
  -1  -2 -22   62.69   14.20
  -1  -2 -22   36.30   21.80
  -1   2 -22   51.99   17.50
   1   2  22   38.80   15.50
   1  -2 -22   30.40   18.60
   1  -2 -22   73.49   18.90
  -1   2 -22   23.00   12.70
   1  -2 -22   48.60   19.10
  -1  -2  22   30.50   20.00
  -1  -2  22   30.30   23.50
  -1   2 -22   66.79   15.50
  -1   2 -22   37.90   21.60
   1   2  22   42.60   20.60
   1   2  22   37.60   24.00
  -1   2 -22   59.49   18.70
   1   2  22   30.20   20.30
   1   2  22   46.60   18.20
  -1  -2  22   46.20   19.30
  -1  -2  22   28.40   11.80
   2   2 -22  202.18   30.90
  -2   2  22  229.58   34.40
   2  -2  22  194.08   31.70
  -2  -2 -22  221.08   29.20
  -2  -2 -22  218.48   29.20
   2   2 -22  242.98   31.00
  -2  -2 -22  179.38   32.70
   2  -2  22  187.38   17.70
  -2   2  22  187.88   32.70
  -2   2  22  254.77   35.00
   2  -2  22  180.98   33.70
  -2  -2 -22  176.38   24.90
   2   2 -22  184.28   33.30
   2  -2 -22  183.28   27.70
  -2  -2  22  193.18   20.20
  -2   2 -22  239.48   34.00
   2   2  22  225.48   32.60
  -2  -2  22  224.18   33.20
  -2  -2  22  299.37   49.80
   2  -2 -22  214.68   26.40
  -2   2 -22  256.57   30.10
   2   2  22  216.58   30.90
  -2  -2  22  246.38   36.60
  -2   2 -22  212.28   32.80
   2  -2 -22  239.58   26.80
  -2   2 -22  140.79   31.20
   2  -2 -22  207.18   36.90
   2   2  22  180.08   32.30
  -3   2  22   42.90   36.60
   3  -2  22   16.80   28.10
  -3  -2 -22   56.29   20.60
  -3   2  22   38.30   27.70
   3   2 -22   68.19   27.50
   3  -2  22    6.50   26.60
  -3   2  22   41.00   28.40
   3   2 -22   38.90   19.80
   3   2 -22   70.19   22.80
  -3  -2  22   81.29   32.90
   3   2  22   58.59   21.40
  -3   2 -22   12.20   24.80
  -3   2 -22   30.20   25.20
   3  -2 -22   31.10   28.60
   3   2  22   47.10   28.20
   3  -2 -22   34.80   19.00
   3   2  22   34.80   29.30
  -3   2 -22   22.60   29.30
   3  -2 -22   83.09   22.30
   3  -2 -22   22.80   19.40
  -3  -2  22   33.40   32.50
  -3  -2  22  100.69   37.40
   0   3 -22  625.84   49.40
   0  -3 -22  673.23   45.40
   0  -3  22  588.34   39.80
   0  -3 -22  621.44   38.70
   0  -3  22  674.03   40.40
   0   3 -22  593.44   40.60
   0  -3 -22  640.04   39.00
   0  -3  22  624.44   39.40
   0  -3  22  619.64   43.00
   0  -3 -22  574.64   44.60
   0   3  22  618.64   36.00
   0   3 -22  571.54   35.70
   0   3 -22  696.83   43.80
   0  -3 -22  610.94   51.19
   0  -3 -22  606.04   40.60
   0   3  22  618.24   42.40
   0   3 -22  643.34   42.50
   1   3 -22  611.44   46.30
  -1   3  22  617.44   42.90
   1   3 -22  585.94   40.50
   1   3 -22  527.85   29.40
  -1   3  22  524.35   35.40
   1  -3  22  630.54   44.50
  -1   3  22  606.14   46.40
   1  -3  22  577.64   42.10
  -1  -3 -22  638.14   41.20
  -1  -3 -22  562.64   49.80
   1   3 -22  617.04   42.70
   1  -3  22  596.44   63.39
  -1  -3 -22  580.04   34.70
  -1  -3 -22  619.04   40.40
  -1   3  22  554.24   28.50
   1   3  22  550.34   42.20
  -1   3 -22  635.74   42.60
  -1   3 -22  608.34   41.80
  -1  -3  22  623.14   49.60
   1   3  22  657.33   62.19
   1  -3 -22  623.64   39.90
  -1   3 -22  668.53   37.30
   1  -3 -22  576.44   40.00
   1  -3 -22  550.24   46.60
   1  -3 -22  607.94   44.80
  -1   3 -22  552.54   41.10
   1   3  22  585.24   43.70
   1   3  22  573.44   41.30
  -1  -3  22  556.74   36.10
  -1  -3  22  562.44   48.30
   1  -3 -22  580.04   36.10
  -1   3 -22  600.24   49.40
  -2  -3 -22   94.39   22.40
   2  -3  22  140.59   29.50
  -2   3  22  103.09   37.70
   2   3 -22  107.99   20.20
   2  -3  22   85.19   24.30
  -2   3  22   88.89   25.30
   2   3 -22   74.39   23.20
  -2  -3 -22  127.99   22.80
  -2   3  22  106.49   22.80
  -2  -3 -22   47.40   26.80
   2   3 -22  107.19   27.00
  -2  -3  22   91.69   19.30
  -2   3 -22   42.90   30.70
   2   3  22  155.68   27.10
   2   3  22  106.39   33.20
   2  -3 -22   91.29   22.90
  -2   3 -22   94.59   24.20
  -2   3 -22  101.09   26.50
  -2   3 -22  106.19   28.80
   2  -3 -22  119.79   27.80
  -2   3 -22  135.89   24.70
   2  -3 -22   91.59   21.80
  -2  -3  22  114.29   18.30
  -2  -3  22  100.09   23.90
  -2  -3  22  122.69   34.00
   2   3  22  184.08   31.90
   2  -3 -22   99.99   28.70
  -2  -3  22  114.49   36.60
  -3   3  22  485.95   58.29
   3  -3  22  495.75   49.70
   3   3 -22  480.85   50.89
  -3  -3 -22  381.46   50.89
  -3   3  22  535.65   72.39
   3  -3  22  516.25   56.59
   3   3 -22  384.36   43.40
   3   3 -22  402.66   44.90
  -3   3 -22  538.15   58.49
  -3  -3  22  440.56   64.49
   3   3  22  467.15   63.19
   3   3  22  454.05   57.39
   3  -3 -22  345.67   41.70
  -3  -3  22  553.34   69.39
   3  -3 -22  503.85   39.30
  -3   3 -22  481.25   57.69
   3  -3 -22  412.26   53.69
   3   3  22  472.45   49.30
   3  -3 -22  396.66   44.40
  -3  -3  22  468.75   55.99
   0  -4 -22  494.55   56.29
   0  -4  22  573.24   43.80
   0  -4 -22  508.25   42.60
   0   4 -22  468.85   43.10
   0   4 -22  472.15   45.60
   0   4  22  535.25   36.80
   0  -4 -22  471.85   36.10
   0   4 -22  443.86   53.29
   0  -4  22  555.24   45.90
   0   4 -22  535.95   36.50
   0  -4  22  549.85   46.80
   0   4  22  479.05   42.40
   0  -4 -22  556.44   42.60
  -1  -4 -22   42.00   30.00
  -1   4  22  -30.10   25.00
  -1  -4 -22   23.40   20.80
   1  -4  22   26.00   26.10
   1   4 -22   42.20   20.10
   1   4 -22   30.90   19.90
  -1  -4 -22   25.30   17.60
   1   4 -22  -16.60   25.20
  -1  -4 -22   22.70   18.50
  -1   4  22   11.70   19.40
   1  -4  22    7.50   23.90
  -1  -4  22   -1.20   21.60
  -1   4 -22   -9.30   16.60
  -1   4 -22   53.89   21.70
   1   4  22  -21.60   23.60
  -1   4 -22   53.99   21.80
  -1   4 -22   -8.80   27.60
   1  -4 -22   23.40   21.30
   1  -4 -22   16.00   18.80
  -1  -4  22  -23.80   24.80
   1   4  22   54.99   18.80
   1  -4 -22   74.39   28.50
   1  -4 -22   -6.80   22.10
  -2   4  22  211.68   36.30
  -2  -4 -22  130.29   26.70
  -2   4  22  123.79   36.20
   2  -4  22  171.18   35.20
   2  -4  22  271.47   45.70
  -2  -4 -22  176.88   30.90
   2   4 -22  219.38   36.40
   2   4 -22  182.18   36.10
   2   4 -22  194.28   32.30
  -2  -4  22  250.87   32.00
   2  -4 -22  167.28   32.10
  -2   4 -22  175.38   35.80
   2   4  22  182.98   38.40
  -2  -4  22  162.78   34.00
   2  -4 -22  194.78   31.80
   2   4  22  219.68   34.40
  -2   4 -22  140.89   28.40
  -2  -4  22  183.28   27.30
   2  -4 -22  223.88   36.80
  -2  -4  22  163.18   39.70
  -2   4 -22  163.78   35.70
   2  -4 -22  139.69   34.10
  -2   4 -22  182.58   35.70
  -3   4  22   41.80   33.10
  -3   4  22  -21.00   46.10
   3  -4  22   47.20   34.10
  -3  -4 -22   42.40   37.40
  -3   4 -22  -47.50   42.50
   3   4  22  -32.70   43.40
  -3  -4  22  109.39   38.00
   3   4  22   14.10   28.70
   3  -4 -22   33.10   25.50
   0  -5 -22   56.79   26.10
   0  -5 -22   87.39   25.10
   0  -5 -22  128.99   28.60
   0   5 -22  117.19   34.90
   0   5 -22   68.99   26.10
   0  -5 -22  115.59   37.60
   0   5 -22   76.29   45.30
   0   5  22  108.69   24.30
   0  -5  22   85.19   26.00
   0   5 -22   91.19   27.00
   0   5  22  132.79   29.40
   0  -5  22   61.99   30.10
   1  -5  22  277.97   40.50
   1  -5  22  283.07   45.70
   1   5 -22  219.08   41.30
  -1  -5 -22  271.67   41.40
   1   5 -22  195.48   36.80
   1   5 -22  268.47   42.10
  -1  -5 -22  294.37   39.90
  -1   5  22  386.86   55.19
  -1   5  22  286.17   42.60
   1   5  22  312.97   46.30
  -1   5 -22  395.36   59.49
  -1  -5  22  361.26   44.00
  -1  -5  22  311.47   43.90
   1  -5 -22  309.37   54.49
  -1  -5  22  283.17   41.50
  -1   5 -22  325.67   50.69
   1  -5 -22  349.87   50.89
   1  -5 -22  228.38   33.70
   1  -5 -22  384.46   42.90
  -1   5 -22  251.77   44.00
   1   5  22  359.26   45.10
  -1   5 -22  285.97   44.10
  -2   5  22  111.19   44.40
  -2  -5 -22  152.38   30.00
   2   5 -22  171.08   37.30
   2   5 -22  135.59   38.20
   2  -5  22  169.18   34.90
  -2   5  22  107.49   35.00
   2   5 -22  187.88   37.20
  -2  -5 -22  304.67   48.40
   2  -5 -22  136.29   37.00
  -2   5 -22  156.28   40.10
  -2   5 -22  207.98   44.60
   2  -5 -22  152.08   43.80
   2   5  22   96.29   39.40
   2  -5 -22  198.98   35.00
  -2  -5  22  188.88   42.50
   2   5  22  225.88   38.50
  -2  -5  22  120.29   37.50
  -2   5 -22  207.78   38.60
  -2   5 -22  210.78   38.40
   2  -5 -22  164.18   30.80
  -2  -5  22  255.17   36.50
   0   0  23   -0.60   13.60
   0   0 -23   20.30   18.10
   0   0  23   10.80   12.30
   0   0 -23   25.10   14.00
   0   0 -23   18.60   14.20
   0   0  23   21.90   16.20
   0   0  23   20.60   12.40
   0   0 -23    5.30   14.10
   0   0 -23   10.70   13.30
  -1   0 -23   12.40   13.60
   1   0 -23   27.10   15.70
   1   0  23   -4.60   14.20
  -1   0 -23   24.40   14.30
   1   0  23   -8.90   20.00
  -1   0  23    2.40   16.10
   1   0 -23    8.50   12.10
  -1   0  23   28.80   15.00
  -1   0 -23   12.20   12.20
   1   0  23    4.20   22.60
   1   0 -23   12.00   17.80
  -1   0  23   -1.10   19.50
  -1   0  23   11.20    8.50
   1   0  23   20.10   13.10
  -1   0 -23    7.40   17.80
   1   0  23   41.90   16.50
   1   0 -23    5.80   15.90
   1   0  23   29.00   17.10
   1   0  23   18.50   18.00
   2   0 -23   -6.30   16.40
  -2   0  23    5.80   19.10
   2   0  23  -26.00   14.70
  -2   0 -23  -32.30   16.50
  -2   0 -23   19.40   12.90
  -2   0  23   11.50   16.20
   2   0 -23   -6.00   13.30
  -2   0  23  -22.00   23.00
  -2   0 -23   19.50   22.90
   2   0  23   13.60   12.20
   2   0  23   -0.30   25.70
   2   0 -23   -3.70   14.90
  -2   0 -23   15.10   15.80
   2   0 -23  -20.60   16.50
   2   0  23   63.79   26.70
   2   0  23   11.00   19.90
   2   0 -23  -23.90   19.60
  -2   0  23  -15.50   18.40
  -2   0  23   14.80   13.80
   3   0 -23  275.27   33.00
  -3   0  23  385.56   59.49
   3   0  23  378.46   46.50
  -3   0 -23  282.47   32.30
  -3   0  23  420.06   56.49
  -3   0 -23  346.17   37.80
   3   0 -23  312.87   46.00
   3   0 -23  348.77   35.80
   3   0  23  231.38   41.60
   3   0 -23  297.47   37.30
  -3   0 -23  296.97   43.50
   3   0  23  346.57   31.60
   0  -1 -23  342.07   37.10
   0   1  23  292.07   29.90
   0   1 -23  341.77   36.20
   0   1 -23  317.67   30.80
   0  -1  23  363.96   32.40
   0   1 -23  340.47   28.90
   0   1 -23  306.97   38.20
   0  -1 -23  318.07   28.70
   0  -1 -23  359.56   30.30
   0  -1  23  345.67   34.00
   0   1  23  375.76   30.60
   0   1  23  323.37   25.80
   0   1  23  358.86   32.00
   0  -1 -23  287.67   30.10
   0   1 -23  367.66   31.80
   0   1  23  332.47   26.70
   0  -1  23  382.86   29.40
   0  -1 -23  353.06   29.10
   1   1 -23  112.19   24.50
  -1   1  23  130.89   22.90
   1  -1  23  133.09   27.20
   1  -1  23  122.79   20.30
  -1   1  23   89.19   24.60
   1   1 -23   96.29   20.60
  -1  -1 -23  120.69   19.80
   1  -1  23  162.98   25.00
   1   1 -23  105.49   18.90
   1   1 -23  147.09   41.80
  -1  -1 -23  123.09   21.20
   1   1 -23  109.69   25.90
   1  -1  23  185.38   31.30
  -1   1  23  107.39   13.80
  -1   1  23  130.09   17.90
   1   1 -23  150.38   25.20
  -1  -1 -23  147.69   23.20
  -1  -1 -23  152.88   25.80
  -1   1 -23  155.88   24.20
  -1   1 -23  109.69   20.10
   1   1  23  210.58   34.00
  -1  -1  23  137.09   17.20
   1  -1 -23  177.38   24.80
   1   1  23  100.49   18.00
  -1  -1  23  123.39   36.80
   1  -1 -23  149.69   27.20
   1  -1 -23   75.79   20.80
  -1  -1  23  130.79   26.20
   1  -1 -23  122.79   21.70
  -1  -1  23  112.59   21.50
  -1   1 -23  138.19   19.70
  -1   1 -23  132.89   27.00
   1   1  23  179.78   29.10
  -1   1 -23  176.88   26.30
   1  -1 -23  135.39   22.60
   1   1  23  120.19   21.10
   1   1  23  110.29   30.80
  -2  -1 -23  106.29   18.60
  -2   1  23  139.49   43.40
   2  -1  23  129.29   21.80
   2   1 -23  172.18   29.10
  -2   1  23  138.49   32.60
  -2  -1 -23  137.29   29.80
   2  -1  23  144.39   26.90
  -2   1  23  152.68   33.00
   2  -1  23  153.78   23.30
   2   1 -23  106.99   26.20
   2  -1  23  113.99   17.70
   2   1 -23  169.18   27.50
   2  -1  23   85.19   24.30
  -2   1  23  114.29   24.60
   2   1 -23  138.09   28.00
  -2  -1 -23  159.18   27.20
  -2  -1 -23  119.29   21.50
   2  -1 -23  143.09   21.70
  -2  -1  23  142.49   27.50
   2   1  23  126.99   21.70
   2  -1 -23  144.09   28.50
   2   1  23  144.59   27.20
   2   1  23  141.99   27.00
   2  -1 -23  131.29   39.60
  -2   1 -23  198.78   27.60
  -2   1 -23  168.18   29.70
  -2  -1  23  122.09   32.00
  -2  -1  23  177.78   27.70
  -2   1 -23   84.69   27.00
  -2   1 -23  183.68   26.80
  -2  -1  23  133.29   21.50
   2  -1 -23  122.59   23.70
   3  -1  23  -17.40   29.40
  -3   1  23   35.50   28.90
   3   1 -23  -16.70   18.80
   3   1 -23   28.40   25.20
   3   1 -23   21.50   18.70
  -3  -1 -23   20.80   19.60
   3  -1  23   30.40   16.00
   3  -1  23   18.20   26.80
   3   1 -23   19.40   18.90
  -3   1  23   68.09   37.60
  -3   1  23   42.40   28.30
  -3  -1 -23  -28.10   27.00
  -3  -1  23   48.50   31.80
   3   1  23   59.99   29.50
   3   1  23   32.70   28.20
   3  -1 -23    2.70   16.90
   3  -1 -23   12.10   18.50
   3  -1 -23   16.80   20.50
  -3  -1  23  -36.00   24.40
  -3  -1  23   25.00   36.20
  -3   1 -23  -43.60   27.80
   3  -1 -23   64.29   27.50
   3   1  23    1.00   19.90
   0   2  23   11.60   14.20
   0   2  23   29.50   15.50
   0   2 -23   24.40   18.40
   0  -2 -23    0.60   12.70
   0   2 -23   23.50   13.60
   0  -2 -23    5.60   16.00
   0   2 -23   19.40   14.40
   0   2 -23   33.00   19.60
   0   2 -23   26.40   15.00
   0  -2  23   25.40   16.40
   0   2  23   12.10   12.70
   0  -2  23   33.30   20.40
   0  -2  23   41.10   18.50
   0  -2 -23   22.90   21.10
   0   2  23   22.00   18.90
   0  -2 -23   14.90   20.30
   0  -2 -23   11.00   15.70
   0   2  23   27.60   10.90
   1   2 -23   33.40   25.20
   1  -2  23   30.60   31.10
  -1  -2 -23   35.60   12.60
   1  -2  23   18.90   18.30
  -1  -2 -23   34.30   22.90
   1   2 -23   16.90   17.50
   1  -2  23   22.70   14.90
  -1  -2 -23   24.20   16.40
   1   2 -23   42.00   16.30
  -1  -2 -23   39.20   16.50
  -1   2  23   24.40   11.20
  -1   2  23   12.70   20.70
   1  -2  23   51.19   20.20
  -1   2  23    4.10   16.40
  -1   2  23   25.60   11.80
  -1   2  23   16.60   12.00
  -1  -2 -23    9.40   18.00
   1  -2  23    8.30   13.40
  -1  -2  23    7.00   19.90
  -1   2 -23   20.50   13.00
  -1   2 -23   34.50   17.30
   1   2  23   26.70   21.80
  -1  -2  23   40.30   21.80
  -1   2 -23   59.39   16.80
   1  -2 -23   16.60   20.20
  -1  -2  23   34.40   18.10
   1   2  23   29.00   16.60
  -1   2 -23   12.20   21.90
   1  -2 -23   65.59   19.80
  -1  -2  23   13.70   11.90
   1   2  23   35.50   20.20
   1  -2 -23   45.50   17.50
  -1   2 -23   -2.80   15.00
   1   2  23  -16.90   25.50
   1  -2 -23   41.30   16.00
   1   2  23   35.90   14.40
   2  -2  23  -11.50   23.90
   2   2 -23   21.30   19.70
  -2   2  23   15.10   28.00
  -2  -2 -23   23.60   23.00
  -2   2  23   23.40   21.50
  -2  -2 -23   49.50   20.70
   2  -2  23   17.70   20.30
  -2   2  23   21.30   20.60
  -2  -2 -23    3.20   14.70
   2   2 -23   40.00   20.40
  -2   2 -23   39.40   19.10
   2  -2 -23   31.80   20.30
  -2  -2  23   23.10   22.60
  -2   2 -23    3.10   25.00
   2   2  23   33.00   22.10
   2  -2 -23   14.10   18.10
  -2  -2  23   -6.30   18.20
  -2  -2  23   -1.30   27.10
  -2   2 -23    3.50   20.10
  -2   2 -23   -7.00   22.60
   2  -2 -23    2.30   16.10
   2   2  23   -8.20   17.00
   2   2  23   26.70   21.80
   2  -2 -23    6.10   19.00
  -2  -2  23   24.20   11.60
   3  -2  23  209.78   39.40
  -3   2  23  208.78   48.10
  -3   2  23  210.08   38.10
   3   2 -23  268.37   35.80
  -3  -2 -23  313.87   48.00
   3  -2  23  203.08   34.30
   3   2 -23  211.58   33.90
  -3   2  23  202.28   36.30
   3  -2 -23  208.38   30.10
  -3  -2  23  172.38   39.10
  -3  -2  23  217.48   45.70
  -3  -2  23  178.58   34.60
  -3   2 -23  204.78   35.80
   3   2  23  179.08   35.80
   3  -2 -23  154.98   38.20
   3   2  23  186.28   37.60
   3  -2 -23  178.18   29.90
   3  -2 -23  272.87   33.10
  -3   2 -23  235.08   41.80
   3   2  23  292.47   39.30
   0  -3 -23   -4.70   14.80
   0   3 -23    5.30   15.90
   0  -3 -23  -24.00   13.50
   0   3 -23   -8.40   17.00
   0  -3  23   33.20   19.00
   0   3  23   -4.60   15.50
   0  -3 -23   17.30   22.50
   0  -3  23   11.50   16.80
   0  -3  23   -7.80   19.40
   0  -3 -23   31.10   17.80
   0  -3  23   -3.90   16.00
   0   3  23   18.50   18.90
   0   3 -23   -9.50   20.40
   0   3  23   -4.70   13.20
   0   3 -23    1.80   16.50
   1   3 -23  122.29   27.70
   1   3 -23  149.09   30.30
  -1  -3 -23  108.79   19.80
  -1   3  23  133.59   26.30
  -1   3  23  105.59   16.40
   1  -3  23  141.59   27.90
   1  -3  23  131.49   24.80
  -1  -3 -23  125.99   20.30
  -1   3  23   79.39   17.90
   1   3 -23  134.59   17.10
  -1  -3 -23  107.49   22.50
   1   3 -23  129.89   24.20
  -1   3  23  103.69   22.40
   1   3 -23  144.99   23.90
   1  -3  23  161.58   21.80
  -1  -3 -23   77.79   26.90
   1   3  23  155.68   25.60
  -1   3 -23  163.48   26.30
  -1   3 -23  162.08   31.10
  -1  -3  23  137.19   22.60
   1  -3 -23  170.28   28.60
  -1   3 -23  122.59   26.20
   1  -3 -23  150.98   27.50
   1   3  23  118.29   29.80
   1  -3 -23  126.09   25.80
  -1  -3  23  127.89   30.00
   1  -3 -23  141.59   24.90
  -1   3 -23  134.39   23.90
   2  -3  23   97.09   28.00
   2  -3  23  122.19   29.40
   2   3 -23  177.58   31.10
  -2   3  23  118.39   24.90
  -2  -3 -23  154.98   26.70
   2   3 -23  100.79   26.10
  -2   3  23  122.69   27.20
  -2   3  23  183.78   38.00
  -2  -3 -23  138.49   25.40
   2   3 -23  179.48   31.10
  -2  -3  23  161.38   39.70
  -2  -3  23  121.19   26.40
  -2   3 -23  139.09   27.30
   2  -3 -23  143.39   26.70
   2  -3 -23  131.19   26.90
  -2  -3  23  133.19   21.60
   2  -3 -23  157.08   33.10
   2   3  23  155.58   32.10
   2   3  23   97.39   23.60
   2  -3 -23   93.69   25.20
  -2  -3  23  179.08   36.90
   2   3  23  167.28   34.20
  -2  -3  23  104.69   20.10
  -2   3 -23  111.89   28.10
   3   3 -23    6.40   27.30
   3   3 -23   24.10   26.80
   3  -3  23    1.50   31.40
  -3   3  23   82.69   43.50
   3  -3  23   51.29   29.70
  -3   3  23   59.79   32.40
  -3  -3 -23   69.89   32.90
   3   3 -23   18.50   22.90
   3  -3 -23   88.09   24.60
   3   3  23   25.90   28.50
  -3  -3  23   43.00   35.90
   3  -3 -23   -4.70   22.40
   3  -3 -23   37.70   34.60
  -3  -3  23   -7.50   40.50
  -3  -3  23   33.30   39.90
   3   3  23   91.39   33.40
  -3   3 -23   -2.50   31.00
   3   3  23   -5.50   37.30
  -3   3 -23  -11.00   39.40
   3  -3 -23   -2.70   25.00
   0  -4 -23  -58.19   29.70
   0  -4  23   28.10   25.30
   0  -4 -23   34.20   21.70
   0   4 -23   32.10   28.60
   0   4  23   -7.50   18.20
   0  -4 -23   27.80   19.50
   0   4 -23   31.80   19.50
   0   4  23   -5.10   17.60
   0   4 -23   10.30   18.80
   0  -4  23  -22.40   18.70
   0  -4  23   -6.50   21.30
  -1  -4 -23  -12.00   29.30
  -1  -4 -23   -0.70   19.90
   1  -4  23  -22.90   25.30
   1  -4  23   11.70   25.10
   1   4 -23   47.10   21.50
   1   4 -23  -49.60   26.20
  -1  -4 -23   56.29   21.00
   1   4 -23   51.49   21.70
  -1   4  23    5.00   26.30
  -1  -4 -23    0.50   18.00
   1  -4 -23   21.50   19.40
   1  -4 -23   21.20   20.00
   1   4  23   13.40   18.50
  -1  -4  23  -11.00   21.50
   1   4  23   -6.70   23.90
  -1   4 -23   56.19   23.50
  -1   4 -23    2.80   18.50
  -1   4 -23    5.20   22.70
  -1  -4  23  -21.40   27.80
   1  -4 -23  -12.20   28.10
   1  -4 -23  -26.20   24.70
  -1   4 -23   -9.10   30.10
  -1   4 -23   26.90   23.90
   2   4 -23  106.69   26.60
  -2  -4 -23  113.29   29.30
   2  -4  23  149.29   34.60
  -2   4  23   38.10   25.20
   2  -4  23  107.29   32.80
  -2   4  23   31.80   36.30
   2   4 -23   71.29   26.50
   2   4 -23   74.39   27.10
  -2  -4 -23  122.09   26.60
   2  -4 -23  119.39   27.70
   2  -4 -23   99.79   31.20
  -2  -4  23   63.29   22.90
   2   4  23   93.49   31.40
  -2  -4  23   58.59   35.50
   2  -4 -23  104.49   32.00
  -2  -4  23  123.19   25.80
   2   4  23   88.99   25.90
  -2   4 -23   55.79   26.90
  -2  -4  23   86.39   28.60
  -2   4 -23   58.59   29.20
   2  -4 -23   99.89   29.10
  -2   4 -23  105.79   33.30
  -2   4 -23   58.99   32.60
   0   5 -23   16.40   29.60
   0   5 -23   -4.80   27.80
   0  -5 -23   30.30   26.60
   0   5 -23    4.80   31.90
   0  -5  23    0.60   23.50
   0  -5 -23  -20.00   25.10
   0  -5 -23    7.90   25.40
   0  -5  23  -46.90   29.20
   0  -5 -23   34.40   35.00
  -1   5  23   34.40   24.40
   1  -5  23   47.30   33.40
   1  -5  23   20.00   27.90
   1   5 -23   43.30   33.70
  -1  -5 -23   53.09   31.90
  -1  -5 -23  117.59   44.20
  -1  -5 -23   83.19   29.30
   1   5 -23   28.30   27.80
  -1   5  23   12.30   33.70
   1   5 -23   43.10   28.00
  -1  -5  23   48.90   35.70
  -1   5 -23   53.69   33.90
   1  -5 -23    9.80   33.20
   1  -5 -23   91.69   25.50
  -1   5 -23   34.30   30.20
   1  -5 -23   38.30   25.30
  -1   5 -23   33.90   45.00
  -1  -5  23   70.89   27.70
   1   5  23   89.39   33.00
   1  -5 -23   79.99   35.10
   1   5  23   28.10   25.70
  -1  -5  23   79.99   26.70
  -1   5 -23   20.20   33.70
   0   0  24  434.86   35.80
   0   0  24  440.86   32.90
   0   0 -24  393.96   40.70
   0   0 -24  435.26   34.10
   0   0 -24  433.06   33.80
   0   0  24  453.95   31.70
   0   0  24  513.45   38.80
   1   0  24   10.00   25.30
  -1   0 -24   -4.10   12.30
   1   0  24    4.90   17.40
   1   0 -24   19.20   17.40
   1   0  24   -1.10   23.80
  -1   0 -24  -12.20   16.10
  -1   0  24   -0.60    9.40
  -1   0  24    1.20   15.30
  -1   0  24   18.20   16.90
   1   0 -24  -12.10   24.70
   1   0  24    7.50   14.60
  -1   0  24  -20.60   18.70
   1   0  24  -10.80   13.70
   1   0  24    7.80   18.40
  -1   0 -24  -13.70   18.90
  -1   0 -24   23.40   21.60
  -2   0 -24   86.09   16.60
   2   0  24   88.09   24.30
   2   0 -24  105.69   22.30
  -2   0 -24   69.39   18.40
  -2   0  24   81.99   15.90
   2   0 -24   75.19   18.20
  -2   0  24   80.49   22.90
  -2   0 -24   71.49   28.50
  -2   0  24   60.19   24.70
   2   0  24   72.19   26.20
  -2   0  24   63.59   28.70
   2   0  24   76.79   18.20
  -2   0 -24   81.39   22.80
   2   0 -24   60.59   20.40
   2   0 -24   68.99   23.30
   3   0  24   15.70   15.90
  -3   0 -24  -54.79   26.00
  -3   0  24  -45.00   33.70
   3   0 -24   19.80   20.80
   3   0  24   -7.00   29.30
   3   0 -24  -28.50   20.40
  -3   0 -24  -28.30   19.20
  -3   0  24   46.50   33.00
  -3   0 -24    7.10   22.70
   3   0 -24   -7.60   17.90
   3   0 -24   -7.40   25.60
   3   0  24   12.80   24.60
   0   1  24  297.77   27.90
   0  -1 -24  252.17   25.80
   0   1  24  324.57   32.30
   0  -1 -24  203.58   34.40
   0  -1 -24  299.77   36.70
   0   1 -24  195.58   29.90
   0  -1  24  257.07   29.60
   0  -1  24  280.17   26.50
   0   1  24  307.57   28.10
   0  -1  24  259.97   35.40
   0   1  24  316.97   29.70
   0   1 -24  319.27   30.40
   0  -1 -24  245.48   29.10
   0  -1 -24  260.67   28.80
   0   1 -24  251.87   29.40
   0   1 -24  259.57   29.60
   0  -1  24  316.87   31.60
  -1   1  24  327.17   21.70
  -1  -1 -24  317.97   37.70
   1   1 -24  293.17   32.10
  -1   1  24  352.26   35.20
   1  -1  24  319.67   30.20
   1  -1  24  339.57   46.90
   1   1 -24  312.67   34.80
  -1  -1 -24  358.26   28.00
   1  -1  24  380.16   35.30
   1   1 -24  375.76   33.70
   1  -1  24  366.86   33.10
  -1   1  24  344.37   42.70
  -1  -1 -24  348.87   35.90
  -1  -1 -24  355.66   39.90
  -1   1  24  341.97   27.80
  -1  -1  24  344.27   33.30
   1   1  24  310.97   37.10
  -1  -1  24  286.57   42.30
   1   1  24  388.76   41.70
  -1   1 -24  331.77   28.20
  -1   1 -24  302.37   39.10
   1  -1 -24  319.77   32.70
   1   1  24  328.37   32.10
   1  -1 -24  323.77   33.90
  -1  -1  24  334.87   22.80
  -1  -1  24  355.66   35.20
  -1  -1  24  325.77   37.00
  -1   1 -24  325.77   30.50
   1   1  24  280.87   36.90
  -1   1 -24  315.77   42.60
  -1   1 -24  306.57   30.60
   1  -1 -24  390.06   33.40
   2   1 -24  283.97   35.00
   2  -1  24  282.47   28.10
  -2  -1 -24  225.28   37.30
  -2  -1 -24  286.77   23.40
   2   1 -24  331.67   35.60
   2  -1  24  306.07   42.30
   2  -1  24  307.57   36.50
  -2   1  24  272.57   39.20
   2   1 -24  359.96   40.50
  -2  -1 -24  374.76   38.10
   2  -1  24  349.77   41.60
   2   1 -24  324.87   37.10
  -2   1  24  282.87   49.00
  -2   1  24  303.37   38.90
   2  -1  24  291.67   28.60
  -2  -1 -24  259.47   41.00
  -2  -1  24  304.07   43.00
   2  -1 -24  257.87   35.50
   2  -1 -24  281.97   33.10
   2   1  24  349.47   34.50
  -2   1 -24  259.17   38.60
  -2  -1  24  303.77   31.40
   2   1  24  227.98   38.90
  -2   1 -24  298.37   31.40
  -2  -1  24  327.07   50.19
   2  -1 -24  349.77   35.10
   2   1  24  285.37   38.10
  -2   1 -24  315.87   44.40
  -2   1 -24  331.57   30.60
   2  -1 -24  253.87   39.70
   3   1 -24  239.18   35.10
  -3  -1 -24  117.09   24.70
  -3   1  24  189.88   36.80
  -3   1  24  114.09   43.00
  -3   1  24  173.08   37.50
  -3  -1 -24  128.59   32.80
   3  -1  24  186.98   28.30
   3   1 -24  218.18   37.20
   3  -1  24  127.39   34.40
   3  -1  24  150.88   36.90
   3   1 -24  183.08   34.60
   3   1  24  147.39   23.80
   3   1  24  111.39   34.70
   3  -1 -24  142.39   28.40
  -3  -1  24  157.18   38.90
  -3  -1  24  156.28   46.00
   3  -1 -24  226.08   34.20
   3  -1 -24  156.08   25.60
  -3   1 -24  145.29   30.30
  -3   1 -24  184.88   34.90
   3   1  24  132.09   34.60
   3  -1 -24  115.49   33.10
  -3   1 -24  166.68   29.60
   0  -2 -24 2335.47   83.39
   0  -2  24 2324.97   80.49
   0   2 -24 2347.47   85.09
   0  -2 -24 2267.77   92.79
   0  -2 -24 2305.97   84.49
   0   2  24 2292.97   63.59
   0   2 -24 2214.28   75.79
   0   2  24 2324.77   88.29
   0   2 -24 2318.07   83.99
   0   2  24 2372.76   84.69
   0  -2 -24 2367.16   85.79
   0   2 -24 2382.96   86.99
   0   2 -24 2423.16   95.29
   0  -2  24 2379.16   85.49
   0  -2  24 2265.77   82.29
   0   2  24 2294.57   76.99
   0   2  24 2379.56   87.09
   1  -2  24  484.55   36.00
  -1   2  24  472.05   28.60
   1   2 -24  379.76   42.60
   1  -2  24  363.16   50.39
  -1   2  24  471.05   43.90
   1  -2  24  477.95   45.80
   1   2 -24  448.86   41.20
  -1  -2 -24  455.85   53.59
  -1  -2 -24  435.46   30.10
   1   2 -24  458.25   39.80
  -1  -2 -24  428.36   35.30
  -1   2  24  486.85   41.10
   1   2 -24  503.75   37.70
   1  -2  24  405.36   37.30
   1  -2  24  423.36   32.60
  -1  -2 -24  421.06   46.20
  -1  -2 -24  466.65   36.50
  -1   2  24  433.56   26.50
  -1   2 -24  449.46   35.40
  -1   2 -24  413.56   35.60
  -1  -2  24  418.26   28.90
   1   2  24  355.86   39.50
   1  -2 -24  458.75   36.00
  -1   2 -24  476.25   33.80
  -1  -2  24  456.15   38.50
  -1   2 -24  351.26   44.50
   1  -2 -24  400.26   40.50
   1  -2 -24  493.15   38.10
  -1  -2  24  382.96   47.30
  -1   2 -24  353.06   35.60
   1  -2 -24  440.66   36.60
   1   2  24  490.05   42.50
   1  -2 -24  411.56   40.50
  -1  -2  24  458.35   41.70
   1   2  24  449.26   38.30
  -2  -2 -24  673.83   43.80
  -2   2  24  665.83   54.29
  -2   2  24  636.64   62.69
  -2  -2 -24  725.43   44.40
   2   2 -24  544.35   49.60
  -2  -2 -24  683.93   48.00
   2   2 -24  728.93   49.99
   2  -2  24  691.53   53.09
  -2  -2 -24  709.23   56.09
   2  -2  24  614.34   48.40
   2   2 -24  675.03   47.00
  -2   2  24  707.43   59.39
   2  -2 -24  650.83   43.40
   2  -2 -24  681.63   43.30
  -2  -2  24  730.53   65.89
   2  -2 -24  638.84   49.70
  -2   2 -24  650.73   56.99
  -2  -2  24  662.83   44.40
  -2   2 -24  734.33   45.10
  -2   2 -24  685.93   45.10
   2   2  24  586.04   57.09
   2  -2 -24  664.93   54.99
  -2  -2  24  663.73   56.19
  -2  -2  24  613.14   33.10
   2   2  24  665.23   49.40
  -2   2 -24  671.93   50.49
   2   2  24  631.54   47.30
  -3  -2 -24  159.48   36.40
   3   2 -24   99.39   27.00
   3  -2  24  167.38   32.40
   3  -2  24   41.60   34.70
  -3   2  24   38.90   44.50
  -3   2  24  108.89   35.00
  -3   2  24   72.29   34.50
   3   2 -24  124.89   32.70
   3   2 -24   79.99   23.20
   3  -2 -24   89.69   23.40
  -3   2 -24  118.69   35.30
  -3  -2  24  147.09   44.40
   3  -2 -24   72.19   25.80
   3   2  24   13.00   36.80
  -3   2 -24   52.59   30.40
   3  -2 -24   62.49   30.60
   3   2  24   93.29   28.60
   3   2  24   24.20   30.60
   3  -2 -24  116.09   26.60
  -3  -2  24   99.39   31.80
  -3  -2  24  114.49   36.70
   0   3 -24  279.67   29.90
   0  -3  24  309.97   32.40
   0  -3 -24  269.57   35.10
   0   3  24  299.67   37.20
   0  -3  24  275.27   35.40
   0   3 -24  269.47   34.30
   0  -3 -24  298.07   32.00
   0   3  24  282.67   30.90
   0  -3  24  235.48   38.40
   0   3 -24  349.37   44.90
   0  -3 -24  297.17   31.50
   0  -3  24  281.77   36.60
   0  -3 -24  283.77   40.30
   0   3  24  252.57   34.10
   0   3 -24  289.27   34.30
   1  -3  24  417.86   43.40
  -1  -3 -24  548.15   39.60
  -1  -3 -24  401.06   33.20
  -1   3  24  447.26   28.70
  -1   3  24  447.76   41.20
   1  -3  24  453.85   41.10
  -1  -3 -24  405.36   49.70
   1   3 -24  415.96   38.00
   1   3 -24  514.55   42.10
   1   3 -24  456.15   48.30
   1   3 -24  386.56   29.20
  -1   3  24  550.74   49.40
  -1  -3 -24  399.66   36.70
  -1   3  24  472.95   31.90
   1  -3  24  443.96   40.50
  -1   3 -24  419.56   48.90
  -1  -3  24  478.35   48.50
   1  -3 -24  435.86   37.40
   1   3  24  401.96   40.60
   1   3  24  382.66   41.50
   1  -3 -24  390.66   47.30
  -1   3 -24  469.35   38.70
   1  -3 -24  443.26   37.00
   1   3  24  408.76   55.89
  -1  -3  24  445.76   47.40
  -1   3 -24  475.65   40.70
  -1   3 -24  382.36   33.70
  -1   3 -24  401.96   38.70
  -1  -3  24  426.16   34.70
   1  -3 -24  462.35   46.30
  -2  -3 -24  367.46   38.30
  -2   3  24  372.26   45.40
   2  -3  24  337.77   41.70
  -2   3  24  410.66   58.19
   2   3 -24  333.57   44.20
  -2   3  24  297.57   40.80
  -2  -3 -24  277.37   36.60
   2  -3  24  429.46   45.50
   2   3 -24  337.37   43.30
   2   3 -24  391.76   38.90
  -2  -3 -24  360.56   40.10
   2   3  24  277.87   43.10
  -2  -3  24  496.15   57.49
  -2  -3  24  282.17   32.60
  -2   3 -24  282.17   41.60
  -2   3 -24  390.66   44.60
   2  -3 -24  347.87   39.60
   2   3  24  379.96   48.20
  -2  -3  24  358.56   42.60
   2  -3 -24  274.17   38.50
  -2   3 -24  409.46   41.50
  -2  -3  24  280.57   45.80
   2  -3 -24  318.27   44.40
   2  -3 -24  369.46   48.70
   2   3  24  381.26   44.80
  -2  -3  24  332.97   31.70
  -3   3  24  119.09   48.70
  -3  -3 -24  201.78   39.20
   3  -3  24  180.28   40.00
   3  -3  24  154.78   33.20
  -3   3  24  193.58   38.80
   3   3 -24  152.78   30.80
   3   3 -24  131.49   33.00
   3   3 -24  186.68   32.80
   3   3  24  137.49   33.10
   3   3  24  139.79   42.70
  -3   3 -24   85.79   43.50
   3  -3 -24  113.39   37.10
   3  -3 -24  127.89   32.30
   3  -3 -24  136.39   29.90
  -3  -3  24  182.48   40.10
   3   3  24   97.19   38.80
   3  -3 -24  162.48   28.30
  -3  -3  24  134.49   43.50
  -3  -3  24  154.68   50.29
  -3   3 -24  106.29   36.80
   0  -4 -24  350.16   40.40
   0  -4  24  345.77   45.60
   0   4  24  398.76   40.70
   0   4 -24  378.26   36.00
   0  -4  24  287.37   42.10
   0  -4 -24  323.77   38.20
   0   4 -24  351.96   39.50
   0  -4 -24  386.56   38.20
   0   4 -24  279.57   42.60
   0   4  24  297.77   34.80
   0   4 -24  339.57   51.89
   0  -4  24  324.87   41.40
   0  -4 -24  319.57   51.69
   1  -4  24  243.58   37.90
  -1  -4 -24  241.18   37.30
   1   4 -24  246.68   41.10
   1   4 -24  222.68   38.20
   1  -4  24  232.68   34.80
  -1  -4 -24  307.27   36.50
  -1  -4 -24  260.77   39.00
  -1   4  24  277.67   46.60
  -1   4  24  254.77   41.80
   1   4 -24  283.97   38.40
  -1  -4 -24  232.58   40.30
   1  -4 -24  226.98   37.40
  -1  -4  24  319.57   38.20
   1  -4 -24  312.97   44.70
  -1   4 -24  175.78   40.40
   1   4  24  269.07   37.10
  -1   4 -24  212.68   34.50
   1   4  24  242.58   43.70
  -1  -4  24  235.68   41.40
   1  -4 -24  236.98   39.10
  -1   4 -24  182.58   32.50
  -1   4 -24  223.08   29.10
   1  -4 -24  226.48   36.10
   2   4 -24  104.69   31.30
  -2  -4 -24  301.77   45.10
  -2  -4 -24  199.08   32.40
  -2   4  24  130.69   34.20
   2   4 -24  178.98   32.90
   2  -4  24  134.19   33.70
  -2   4  24  136.89   44.20
   2   4 -24  144.99   33.40
   2  -4  24  224.08   42.70
   2   4  24  166.58   33.60
   2  -4 -24  208.18   36.40
  -2  -4  24  246.58   38.80
  -2  -4  24  161.18   29.60
  -2  -4  24  133.89   47.10
  -2   4 -24  155.28   36.70
  -2   4 -24  202.48   33.30
   2  -4 -24  167.88   31.60
   2   4  24  224.38   41.60
  -2   4 -24  169.08   31.20
   2  -4 -24  197.98   32.00
   2   4  24  103.09   40.50
   2  -4 -24  123.89   31.70
  -2   4 -24  213.78   38.80
   0   5 -24  119.09   33.10
   0  -5 -24  114.49   43.00
   0  -5 -24   52.89   28.60
   0   5 -24   35.30   38.10
   0  -5  24    5.80   28.00
   0   5  24   55.19   27.80
   0  -5 -24   74.79   29.60
   0  -5 -24   30.30   29.50
   0  -5  24   24.30   33.90
   0   5 -24  -10.90   27.60
  -1   5  24  170.58   40.70
   1   5 -24  189.38   37.70
   1   5 -24  230.08   39.70
  -1  -5 -24  212.18   33.90
   1   5 -24  188.58   35.80
   1  -5  24  317.17   46.90
  -1   5  24  162.88   32.10
  -1  -5 -24  285.27   47.00
   1  -5  24  209.28   37.80
  -1  -5 -24  286.77   60.99
   1   5  24  174.28   36.40
  -1   5 -24  202.98   42.40
  -1   5 -24  175.78   39.50
  -1  -5  24  206.08   47.70
   1  -5 -24  185.18   36.00
   1  -5 -24  155.88   30.10
   1   5  24  270.77   42.30
  -1  -5  24  217.28   35.70
   1  -5 -24  212.78   43.00
   0   0 -25   -1.60   14.80
   0   0 -25  -17.90   18.50
   0   0 -25   12.90   15.00
   0   0  25   26.00   19.70
   0   0 -25   34.40   17.10
   0   0 -25   32.40   16.20
   0   0  25   14.10   17.00
   0   0  25    2.10   13.30
   1   0  25  -12.80   15.20
   1   0 -25   15.20   17.80
  -1   0  25   -0.50   15.40
  -1   0  25  -12.40   15.40
   1   0 -25   11.10   14.40
  -1   0 -25   20.10   16.50
  -1   0 -25    1.70   21.00
   1   0  25   13.90   20.90
   1   0 -25    4.00   16.60
   1   0  25   13.70   16.40
   1   0 -25   22.90   18.30
  -1   0  25    7.50   17.70
  -1   0  25  -32.50   33.70
  -1   0 -25   35.00   16.10
  -1   0  25   13.40   10.10
   1   0 -25    2.00   16.00
   1   0  25    3.90   17.50
   1   0  25   -5.60   26.30
  -2   0 -25   26.30   27.60
   2   0  25   57.79   24.50
   2   0  25   28.20   17.00
  -2   0  25   39.10   20.00
  -2   0 -25   43.20   24.20
  -2   0 -25   36.00   15.00
  -2   0  25   51.99   26.10
   2   0  25   46.10   23.20
   2   0 -25    8.80   20.00
   2   0 -25   20.50   18.00
   2   0 -25    0.00   20.30
  -2   0  25    5.40   29.80
   2   0 -25   70.79   23.20
  -2   0 -25   54.59   19.50
  -2   0  25   15.30   23.00
   3   0  25  115.29   37.60
   3   0  25  151.48   37.40
  -3   0  25   48.70   38.30
  -3   0 -25  162.98   34.80
   3   0 -25  153.68   29.40
   3   0 -25   70.89   30.60
  -3   0 -25  127.59   28.20
  -3   0 -25  172.88   40.90
   3   0 -25  144.89   24.90
   3   0 -25  180.28   28.80
   3   0  25  144.39   24.90
  -3   0  25  174.68   39.10
   0   1 -25   37.40   23.10
   0  -1 -25   45.30   16.30
   0  -1 -25   -2.00   20.10
   0   1  25   12.60   14.60
   0  -1  25   52.99   18.90
   0   1  25   28.80   16.60
   0  -1  25   20.20   21.50
   0  -1 -25   28.40   15.10
   0   1 -25   28.00   16.80
   0  -1 -25   33.70   16.30
   0   1  25   59.79   17.70
   0  -1  25  -20.00   18.30
   0   1 -25   20.40   18.30
   0   1  25   37.40   17.10
   0   1  25   37.80   19.90
   0  -1  25   36.90   14.40
   0   1 -25   17.30   17.30
   1  -1  25   19.80   28.50
   1  -1  25   86.49   20.70
  -1   1  25  150.38   34.30
  -1   1  25  113.99   19.80
   1  -1  25  168.98   27.90
   1  -1  25  101.09   19.70
  -1  -1 -25   60.89   19.20
  -1   1  25  137.59   17.40
   1   1 -25   50.89   18.90
  -1  -1 -25   94.49   20.70
  -1  -1 -25  100.29   17.80
  -1   1  25  100.89   22.10
  -1  -1 -25   82.79   25.30
   1   1 -25   81.99   25.10
   1   1 -25   71.39   20.50
   1  -1  25  115.09   24.50
   1   1 -25  118.99   22.10
  -1  -1  25   97.69   29.80
   1   1  25  115.79   23.00
  -1   1 -25   91.19   19.20
  -1   1 -25  101.39   20.40
   1   1  25  100.29   28.50
   1   1  25   59.99   23.40
  -1  -1  25   74.39   22.00
  -1  -1  25   90.89   22.90
   1   1  25  101.19   26.00
   1   1  25  102.69   33.10
   1  -1 -25   65.39   23.80
  -1  -1  25   78.49   14.90
  -1  -1  25  130.89   25.50
   1  -1 -25  127.89   24.30
   1  -1 -25  152.08   25.70
  -1   1 -25   79.99   26.10
  -1   1 -25   83.49   18.70
  -1   1 -25  118.09   21.00
   1  -1 -25   90.99   21.50
  -2   1  25   34.10   23.60
   2   1 -25   60.39   19.20
   2   1 -25   30.10   23.60
  -2  -1 -25    7.10   19.50
  -2   1  25   54.69   30.10
   2  -1  25   55.99   22.50
  -2  -1 -25   26.60   13.90
   2  -1  25   33.10   17.00
   2  -1  25   27.90   23.20
   2   1 -25   17.40   22.40
   2   1 -25   39.90   19.10
   2  -1  25   24.50   17.50
  -2  -1 -25   32.40   25.80
  -2  -1 -25   57.99   23.40
  -2   1  25   34.80   25.10
   2  -1 -25   12.10   22.40
   2  -1 -25   83.09   20.90
  -2  -1  25   24.40   30.30
   2   1  25   37.60   17.20
  -2   1 -25   73.39   19.60
   2  -1 -25    5.60   20.20
   2  -1 -25   62.39   18.50
  -2  -1  25   46.40   19.40
  -2   1 -25    1.50   25.40
  -2   1 -25   29.50   19.20
  -2   1 -25   17.30   20.60
   2   1  25    0.10   23.80
  -2  -1  25   34.60   25.00
   2   1  25    3.40   25.40
   3   1 -25   66.19   24.60
  -3  -1 -25  -41.80   32.20
  -3   1  25   31.90   33.40
   3  -1  25   42.00   30.90
   3  -1  25   46.20   18.10
   3  -1  25    3.10   27.40
  -3   1  25   43.20   39.30
   3   1 -25   94.29   32.70
   3   1 -25   28.80   21.00
   3  -1 -25   38.00   21.90
   3   1  25   92.59   22.10
  -3  -1  25   12.40   35.20
   3  -1 -25   37.90   31.00
  -3   1 -25   45.30   26.80
   3   1  25   -1.80   28.70
  -3  -1  25   45.00   43.40
   3   1  25   29.40   36.10
   3  -1 -25   21.00   24.30
  -3   1 -25   10.40   33.70
   3  -1 -25    6.50   18.90
   0   2  25   45.50   19.30
   0  -2 -25   44.30   17.00
   0  -2  25   57.69   21.90
   0  -2 -25   68.89   17.80
   0   2 -25   80.49   25.60
   0   2 -25   52.49   21.60
   0  -2  25   73.59   18.80
   0   2  25   89.19   24.00
   0  -2 -25   62.39   16.50
   0   2 -25   90.49   18.10
   0   2  25   60.99   16.60
   0   2 -25   42.00   16.70
   0   2 -25  103.09   21.80
   0  -2 -25   80.79   27.90
   0   2  25   64.79   17.20
   0  -2  25   44.00   21.30
  -1  -2 -25  190.58   33.40
   1   2 -25  155.08   32.80
   1   2 -25  209.98   31.30
  -1  -2 -25  176.38   25.80
   1  -2  25  172.18   29.50
  -1   2  25  181.18   25.10
  -1   2  25  168.78   32.20
  -1   2  25  132.09   23.60
   1  -2  25  140.59   25.80
   1  -2  25  238.88   35.30
   1   2 -25  138.19   28.60
  -1  -2 -25  177.28   29.10
  -1  -2 -25  221.98   30.10
   1   2 -25  260.97   31.70
  -1   2  25  180.28   21.60
   1  -2  25  229.88   30.70
  -1  -2  25  160.78   27.70
   1  -2 -25  157.18   27.80
   1   2  25  155.18   27.40
  -1   2 -25  229.48   29.80
  -1  -2  25  152.48   23.00
  -1   2 -25  174.88   30.90
  -1   2 -25  158.48   27.10
  -1  -2  25  146.29   26.90
   1   2  25  118.59   28.70
   1   2  25  188.88   30.10
   1  -2 -25  175.08   30.60
   1  -2 -25  171.78   29.00
   1  -2 -25  194.18   35.10
  -1   2 -25  205.68   31.70
  -1  -2  25  190.88   34.60
   2  -2  25    1.40   19.00
  -2   2  25   -2.60   23.40
  -2   2  25   10.70   29.60
  -2   2  25    9.30   22.30
   2  -2  25   39.40   24.80
   2   2 -25  -11.80   18.60
   2   2 -25  -28.60   20.50
   2   2 -25   38.00   21.90
  -2  -2 -25    6.40   20.60
  -2  -2 -25   -7.90   19.70
  -2  -2 -25  -35.20   36.90
  -2  -2 -25   19.40   19.20
  -2   2 -25   61.89   20.70
  -2   2 -25   23.40   21.50
  -2   2 -25  -17.70   22.90
  -2  -2  25  -13.80   20.70
   2   2  25   17.20   28.30
   2   2  25   17.80   23.20
  -2  -2  25   51.69   34.20
   2  -2 -25   18.40   19.10
   2   2  25   -6.50   18.20
   2  -2 -25   18.70   21.00
  -2  -2  25    6.60   27.40
  -3   2  25   51.99   34.00
   3  -2  25   -2.30   35.80
  -3   2  25   32.60   34.00
   3   2 -25  -20.90   26.30
  -3  -2 -25   84.79   36.10
   3   2 -25    8.20   25.10
  -3   2  25   22.90   41.70
   3   2 -25   58.99   23.90
   3  -2  25   11.00   28.20
  -3   2 -25   29.80   40.80
   3  -2 -25   -9.10   35.10
   3   2  25  -30.60   25.40
  -3  -2  25   11.00   32.60
  -3  -2  25   73.69   38.90
   3   2  25  101.29   35.20
   3   2  25   -0.80   35.00
   3  -2 -25   26.70   21.60
   3  -2 -25   31.80   24.10
   3  -2 -25   33.00   23.80
  -3  -2  25  -28.10   43.30
  -3   2 -25   10.80   30.30
   0   3 -25   49.80   19.20
   0   3 -25   39.10   31.90
   0  -3  25   31.10   27.50
   0  -3  25   47.20   21.90
   0  -3 -25   73.29   28.10
   0  -3 -25   30.50   20.80
   0   3  25   11.80   19.20
   0  -3 -25   54.89   20.30
   0   3  25   23.90   19.80
   0  -3 -25   -4.50   19.30
   0   3  25   26.50   17.50
   0  -3  25   10.40   21.30
   0   3 -25   24.80   18.80
   0  -3  25   34.20   19.40
   0   3 -25   20.10   22.10
  -1  -3 -25   63.79   22.20
  -1   3  25   68.19   15.30
  -1  -3 -25   90.69   21.30
   1  -3  25   68.99   26.40
  -1   3  25   29.80   21.60
   1   3 -25   53.29   17.10
   1   3 -25   65.29   23.70
  -1   3  25   33.50   18.60
   1   3 -25   99.39   22.30
  -1   3  25   42.60   27.80
  -1  -3 -25   40.00   30.20
   1  -3  25   84.19   27.50
   1   3 -25   15.60   27.30
  -1  -3 -25   56.49   18.30
   1   3  25   77.99   24.30
   1  -3 -25   78.09   29.00
  -1   3 -25   71.19   23.20
   1  -3 -25   72.69   22.60
  -1   3 -25   59.79   26.20
   1   3  25   23.40   25.50
  -1  -3  25   82.79   28.40
  -1  -3  25   79.59   32.40
  -1   3 -25   99.29   20.20
  -1  -3  25   66.39   20.30
  -1   3 -25   65.59   23.20
   1   3  25   75.79   22.10
   1  -3 -25  108.79   27.30
  -1   3 -25   96.69   33.20
   1  -3 -25   40.40   19.40
   2   3 -25   16.50   21.70
  -2  -3 -25  -21.60   21.60
  -2  -3 -25   10.60   24.80
   2  -3  25    7.80   24.90
   2   3 -25   30.20   20.30
  -2  -3 -25  -12.40   21.50
   2   3 -25    6.40   27.20
   2  -3  25   33.90   25.60
  -2   3  25   52.49   25.60
  -2   3  25   27.20   36.50
  -2   3  25  -30.70   27.80
  -2  -3  25    3.90   32.40
   2   3  25   -1.00   23.80
   2  -3 -25    3.70   23.80
  -2   3 -25    2.80   29.80
  -2  -3  25  -59.59   34.20
   2  -3 -25    4.00   30.70
  -2  -3  25   63.79   27.00
  -2   3 -25   -5.60   25.50
   2  -3 -25   28.60   21.90
   2  -3 -25   44.80   24.40
   2   3  25  -11.70   30.10
  -2  -3  25  -42.90   20.20
  -2   3 -25  -30.60   23.00
   2   3  25    9.10   28.90
   0  -4 -25  -23.70   25.10
   0  -4  25   17.20   21.30
   0   4 -25   31.30   22.90
   0  -4 -25   29.40   22.80
   0   4 -25   15.40   20.90
   0  -4 -25  -45.40   30.40
   0  -4 -25  -18.60   24.10
   0  -4  25   27.80   27.30
   0  -4  25   42.50   27.40
   0   4  25   26.30   20.00
   0   4 -25   65.19   26.10
   0   4  25   -1.80   20.90
   0   4 -25    1.30   31.10
  -1  -4 -25   31.00   37.60
   1  -4  25   53.59   27.50
  -1  -4 -25   20.80   25.10
  -1  -4 -25   80.49   29.80
   1  -4  25   38.70   27.90
  -1   4  25   82.79   28.10
   1   4 -25   61.29   23.70
   1   4 -25   30.30   32.30
  -1   4  25   79.09   30.20
   1   4 -25   63.49   25.80
  -1   4 -25   85.89   27.60
   1  -4 -25   14.00   29.70
  -1   4 -25   97.89   24.80
   1   4  25   81.69   27.60
  -1   4 -25   82.39   28.30
  -1  -4  25   29.50   31.30
   1  -4 -25    5.30   29.30
  -1  -4  25   52.69   22.50
  -1   4 -25    2.00   27.30
   1  -4 -25   65.69   24.10
  -1   4 -25  -16.70   33.10
   2   4 -25   39.80   32.10
   2   4 -25   93.49   32.80
  -2   4  25   44.20   31.40
  -2   4  25  137.09   42.50
  -2  -4 -25  117.89   28.70
   2  -4  25   62.09   32.50
   2   4 -25  137.49   29.60
  -2  -4 -25   90.89   31.30
   2  -4  25  105.49   34.90
  -2   4 -25   97.59   30.80
   2  -4 -25   88.99   35.70
  -2  -4  25  109.59   33.90
   2  -4 -25   78.89   32.30
  -2   4 -25   31.80   34.30
  -2  -4  25   91.69   41.30
   2   4  25  148.59   38.60
  -2   4 -25  113.19   32.80
   2   4  25  100.39   41.80
   2  -4 -25   58.39   30.80
   2   4  25   86.89   32.60
  -2   4 -25  141.19   37.20
   2  -4 -25  105.09   31.70
   0  -5 -25  -24.20   25.40
   0  -5 -25  -26.60   29.00
   0   5 -25  -77.09   37.10
   0  -5  25  -17.40   26.50
   0  -5 -25    4.00   26.00
   0  -5  25  -70.69   33.50
   0  -5 -25  -24.60   40.40
   0   5 -25    7.10   28.80
   0   5  25   27.30   28.40
   0   5 -25   64.59   32.40
  -1   5  25   24.40   38.40
  -1   5  25  -12.60   29.10
   1   5 -25   87.49   38.90
  -1  -5 -25   14.00   28.70
   1  -5  25   77.79   34.60
   1  -5  25  -13.70   30.10
  -1  -5 -25   39.40   31.70
   1   5 -25    7.50   33.70
   1  -5  25   93.49   35.80
   1   5 -25   41.00   34.50
   1   5  25  -12.20   33.90
   1   5  25   35.50   34.60
  -1   5 -25   10.80   37.10
   1  -5 -25   10.00   27.40
  -1  -5  25   10.40   28.70
  -1  -5  25  -26.00   36.70
   1  -5 -25  -46.10   34.80
  -1   5 -25   42.60   34.80
  -1  -5  25  -46.10   28.70
   1  -5 -25   76.49   29.90
   1  -5 -25  -34.40   37.00
   0   0  26   69.09   22.80
   0   0 -26   64.29   19.60
   0   0  26   65.19   23.80
   0   0 -26   60.49   23.70
   0   0 -26   57.49   20.40
   0   0  26   53.39   17.70
   0   0  26   84.19   22.40
   0   0 -26   56.69   19.90
   1   0  26  552.74   45.20
   1   0  26  502.55   40.20
   1   0  26  487.65   38.50
  -1   0  26  499.65   42.70
  -1   0 -26  536.55   41.50
  -1   0 -26  472.35   36.00
   1   0 -26  554.44   45.70
  -1   0  26  477.55   26.30
   1   0 -26  547.85   43.80
   1   0 -26  542.85   39.00
   1   0  26  459.85   43.70
  -1   0  26  546.85   27.00
  -1   0  26  481.85   52.99
  -1   0  26  547.15   41.90
   1   0 -26  466.45   38.10
  -1   0  26  569.14   37.50
  -1   0 -26  553.14   50.69
   2   0  26   67.29   25.70
  -2   0  26   54.49   28.30
   2   0  26   42.20   19.70
  -2   0  26   96.19   34.20
  -2   0 -26   24.70   34.00
   2   0 -26   64.89   22.70
  -2   0  26   22.90   24.30
  -2   0 -26   22.80   24.50
  -2   0 -26   43.20   17.00
   2   0  26   54.39   29.30
   2   0 -26   75.59   25.00
   2   0 -26   13.10   22.10
  -2   0 -26   62.59   20.70
   2   0 -26   25.70   19.60
   3   0 -26  228.28   35.20
   3   0 -26  149.19   33.50
  -3   0 -26  246.48   42.20
  -3   0  26  282.27   46.00
   3   0  26  225.98   41.60
   3   0 -26  354.36   41.70
   3   0  26  318.77   55.49
   3   0 -26  255.67   38.00
  -3   0  26  167.58   48.40
   3   0  26  229.18   36.10
   0   1 -26  105.79   30.10
   0  -1 -26   94.49   22.00
   0   1 -26  111.99   22.20
   0  -1 -26  105.89   22.00
   0  -1  26  123.89   21.20
   0   1  26   79.99   19.00
   0   1  26   78.99   28.70
   0  -1  26  103.89   23.70
   0  -1 -26   97.79   26.10
   0   1 -26  101.99   24.30
   0  -1  26   90.79   24.90
   0  -1  26  114.19   23.80
   0  -1 -26  115.39   22.70
   0   1  26   56.09   17.90
   0   1  26  108.59   22.60
  -1  -1 -26  180.38   26.30
   1  -1  26  201.08   33.40
  -1  -1 -26  212.08   31.10
  -1   1  26  195.38   35.80
   1   1 -26  198.08   32.40
   1  -1  26  267.37   33.50
   1   1 -26  184.58   27.10
  -1  -1 -26  189.08   32.50
  -1   1  26  179.48   28.70
   1   1 -26  209.38   32.20
   1  -1  26  206.88   33.30
   1   1 -26  205.78   32.00
  -1   1  26  294.27   36.10
  -1  -1 -26  248.08   31.50
   1  -1  26  252.07   33.30
  -1  -1  26  225.58   38.40
   1  -1 -26  181.58   31.30
  -1  -1  26  217.38   35.40
  -1  -1  26  197.28   21.20
   1   1  26  209.78   31.30
   1   1  26  207.48   32.50
  -1   1 -26  203.08   30.20
   1  -1 -26  156.78   24.50
   1   1  26  224.38   34.40
  -1  -1  26  201.58   34.00
  -1   1 -26  211.98   25.70
  -1   1 -26  276.27   31.90
   1   1  26  242.18   34.00
   1  -1 -26  228.78   30.90
  -1   1 -26  179.38   33.30
  -1   1 -26  219.78   30.00
  -1  -1  26  210.98   42.20
   1  -1 -26  228.08   32.90
   1   1  26  278.27   37.70
   2  -1  26  324.57   44.10
  -2  -1 -26  303.67   44.50
   2  -1  26  274.77   31.90
  -2   1  26  417.96   50.59
   2  -1  26  284.57   39.80
  -2   1  26  253.07   37.10
  -2  -1 -26  393.76   41.80
   2   1 -26  319.57   37.60
  -2   1  26  290.77   49.30
  -2  -1 -26  273.57   37.80
   2   1 -26  367.86   37.50
   2  -1  26  299.67   33.90
   2   1 -26  369.66   42.60
   2   1 -26  293.57   40.90
  -2   1 -26  369.36   37.00
  -2   1 -26  293.07   47.70
  -2  -1  26  331.57   34.70
   2  -1 -26  267.57   38.10
   2  -1 -26  270.47   36.40
   2  -1 -26  327.17   35.80
   2  -1 -26  321.17   46.40
   2   1  26  336.37   50.29
  -2   1 -26  278.07   33.70
   2   1  26  227.18   33.80
  -2  -1  26  296.47   47.40
  -2   1 -26  278.07   39.40
  -2  -1  26  355.56   48.30
   2   1  26  289.17   41.30
   3   1 -26   89.59   26.90
  -3   1  26   63.29   44.50
   3  -1  26   -1.30   33.00
   3  -1  26   32.10   30.60
  -3   1  26   35.40   36.20
   3   1 -26    5.50   21.30
   3   1 -26    5.60   27.10
   3  -1  26   15.30   19.00
  -3  -1 -26  -58.29   31.80
   3   1  26   22.80   23.40
   3  -1 -26   16.00   25.40
   3  -1 -26   43.20   32.00
   3  -1 -26   39.30   22.40
   3  -1 -26   20.20   25.30
  -3   1 -26   27.10   31.50
   3   1  26   18.40   33.40
   3   1  26   29.30   33.60
  -3  -1  26   99.79   48.80
  -3  -1  26   69.19   38.00
   0   2  26  297.27   35.80
   0   2  26  265.27   31.20
   0  -2 -26  314.57   32.20
   0  -2  26  345.37   38.20
   0  -2  26  306.17   38.50
   0   2  26  218.28   38.70
   0  -2  26  273.27   33.10
   0  -2 -26  218.48   30.10
   0  -2 -26  241.18   34.10
   0   2 -26  269.37   29.10
   0   2 -26  268.67   43.80
   0   2  26  324.17   33.50
   0   2 -26  322.17   33.50
   0  -2 -26  213.08   35.20
   0   2 -26  247.88   33.40
   1   2 -26  752.32   48.10
  -1   2  26  643.24   38.70
  -1  -2 -26  675.63   43.30
   1  -2  26  671.93   45.10
  -1   2  26  596.34   47.90
   1  -2  26  622.54   41.60
  -1  -2 -26  599.44   54.59
   1   2 -26  625.24   55.19
  -1   2  26  755.52   55.39
   1   2 -26  602.54   45.20
  -1  -2 -26  700.53   45.90
  -1  -2 -26  703.93   41.10
   1  -2  26  724.73   49.70
  -1   2  26  695.23   35.10
   1  -2 -26  684.63   46.40
  -1  -2  26  679.73   49.30
  -1  -2  26  720.13   52.79
  -1   2 -26  736.63   41.50
  -1   2 -26  699.23   46.50
   1  -2 -26  735.33   52.89
   1  -2 -26  646.04   51.79
   1   2  26  671.83   59.99
  -1   2 -26  746.23   45.70
   1   2  26  698.13   48.90
  -1   2 -26  658.83   55.99
   1  -2 -26  727.33   46.40
  -1  -2  26  685.63   37.30
  -1   2 -26  715.23   45.20
   1   2  26  721.23   48.60
   2   2 -26  300.97   39.30
   2   2 -26  386.36   45.10
   2  -2  26  263.97   40.50
   2   2 -26  258.37   38.50
  -2   2  26  278.87   46.70
  -2   2  26  271.07   45.60
  -2   2  26  271.27   45.40
  -2  -2 -26  214.58   36.20
  -2  -2 -26  307.77   35.90
  -2  -2 -26  297.17   42.50
  -2   2 -26  368.26   43.70
  -2  -2  26  280.77   40.10
   2  -2 -26  284.87   40.20
  -2  -2  26  270.77   50.19
   2   2  26  306.87   45.60
   2   2  26  207.58   41.40
  -2  -2  26  228.88   38.60
  -2   2 -26  324.67   39.20
  -2   2 -26  270.27   41.60
   2  -2 -26  267.37   40.80
   2   2  26  291.27   38.00
   2  -2 -26  329.07   47.30
   2  -2 -26  350.46   38.50
   3  -2  26  169.38   46.90
   3   2 -26  175.28   30.40
  -3  -2 -26  182.48   41.40
   3   2 -26   99.69   30.90
  -3   2  26  180.28   40.00
  -3   2  26  219.38   43.10
   3   2 -26  134.59   38.60
  -3   2  26   43.40   46.90
   3  -2  26  128.99   35.80
   3  -2 -26  261.27   40.30
   3  -2 -26  153.78   33.50
  -3  -2  26  195.08   50.89
  -3  -2  26   64.49   45.90
   3   2  26  104.09   29.20
  -3   2 -26  168.18   37.10
  -3   2 -26  173.98   44.30
   3  -2 -26  196.78   40.70
   3   2  26  122.69   37.80
   0   3 -26  235.78   36.70
   0  -3  26  229.38   40.10
   0  -3  26  284.47   39.40
   0  -3 -26  246.88   35.70
   0  -3 -26  211.38   32.30
   0  -3  26  232.78   35.00
   0  -3  26  251.77   37.20
   0   3 -26  242.18   37.30
   0   3  26  193.18   31.20
   0   3  26  180.18   29.40
   0  -3 -26  231.98   33.60
   0   3  26  278.27   37.40
   0   3  26  243.28   31.20
   0   3 -26  235.28   34.70
   0  -3 -26  234.68   40.40
   0   3 -26  252.27   37.20
  -1  -3 -26  886.31   46.20
  -1   3  26  837.92   40.20
   1  -3  26  805.22   54.59
   1   3 -26  822.52   54.59
  -1  -3 -26  867.11   52.09
  -1   3  26  818.02   63.89
   1   3 -26  890.91   61.99
   1   3 -26  804.22   51.59
   1  -3  26  820.32   55.99
  -1  -3 -26  849.91   51.89
  -1   3  26  855.91   59.19
   1   3 -26  750.72   40.90
  -1  -3 -26  896.91   67.89
  -1   3 -26  853.31   66.39
  -1   3 -26  759.22   53.89
  -1   3 -26  669.23   50.59
   1   3  26  750.12   60.49
   1  -3 -26  834.12   62.79
  -1   3 -26  797.82   54.69
   1   3  26  897.41   53.99
   1   3  26  826.02   56.49
   1  -3 -26  843.12   52.79
   1  -3 -26  887.01   60.49
  -1  -3  26  738.33   60.29
  -1   3 -26  817.82   45.70
  -1  -3  26  756.22   73.79
   1  -3 -26  863.61   52.99
  -1  -3  26  887.31   47.30
   2  -3  26  429.56   51.79
   2   3 -26  252.37   39.30
   2   3 -26  392.76   45.90
   2  -3  26  273.67   38.90
  -2   3  26  328.27   51.09
   2   3 -26  311.37   49.99
  -2  -3 -26  310.57   42.00
  -2  -3 -26  295.77   44.60
  -2   3  26  281.27   50.79
  -2  -3 -26  297.87   43.40
  -2   3  26  273.87   36.90
  -2  -3  26  264.67   45.90
   2   3  26  261.17   35.40
  -2   3 -26  426.46   52.69
   2  -3 -26  353.66   50.09
   2   3  26  241.68   47.40
  -2   3 -26  340.27   48.70
   2   3  26  379.46   49.10
  -2  -3  26  276.67   48.10
   2  -3 -26  270.97   36.10
   2  -3 -26  333.57   42.50
  -2   3 -26  263.77   36.10
   2  -3 -26  413.96   54.39
  -2  -3  26  361.86   60.39
   0   4  26  104.59   24.40
   0   4 -26   56.19   34.80
   0  -4 -26  157.28   29.40
   0  -4 -26  123.79   30.80
   0   4 -26  121.19   28.30
   0  -4  26   86.09   31.60
   0  -4 -26  184.98   42.50
   0  -4  26   60.39   27.00
   0   4  26   66.69   29.70
   0  -4 -26   87.99   26.80
   0   4 -26  158.68   33.20
   0  -4  26  150.78   33.90
   0   4  26  114.89   37.00
   0   4 -26  125.49   25.40
  -1  -4 -26  250.47   43.30
   1  -4  26  252.57   46.00
   1  -4  26  293.07   48.10
  -1   4  26  273.47   46.70
  -1  -4 -26  311.57   45.00
   1   4 -26  294.87   42.10
  -1   4  26  309.17   52.89
   1   4 -26  199.18   32.80
  -1  -4 -26  216.28   48.40
   1   4 -26  253.37   42.60
  -1  -4  26  245.38   42.00
  -1   4 -26  261.37   37.50
   1   4  26  204.38   35.70
   1  -4 -26  282.77   40.60
  -1   4 -26  302.97   47.50
   1  -4 -26  196.88   32.60
  -1   4 -26  214.08   36.60
   1   4  26  185.98   34.70
   1   4  26  243.58   42.20
  -1  -4  26  211.68   40.80
   1  -4 -26  300.47   50.59
   1  -4 -26  231.68   45.70
  -2   4  26   93.19   47.70
   2  -4  26  143.19   39.10
  -2   4  26  151.08   39.60
   2   4 -26   61.39   33.70
   2  -4  26  197.78   43.70
   2   4 -26   78.29   34.30
   2   4 -26  156.58   34.30
  -2  -4 -26   73.69   29.20
  -2  -4 -26  183.68   33.80
  -2  -4  26  132.39   42.70
   2   4  26  155.18   34.90
  -2   4 -26  207.38   38.40
   2  -4 -26  129.29   38.80
  -2   4 -26  134.29   35.20
   2   4  26  206.28   44.50
  -2  -4  26  140.59   35.00
  -2   4 -26  129.49   41.50
   2  -4 -26  113.89   32.20
  -2   4 -26  121.69   41.00
   2   4  26  198.38   40.80
   2  -4 -26  146.39   33.20
   2  -4 -26  116.79   42.60
   0  -5 -26  188.88   46.70
   0   5 -26  201.88   43.30
   0   5 -26  131.79   45.20
   0   5 -26  106.49   44.80
   0  -5  26   96.89   43.40
   0  -5 -26  129.89   36.90
   0  -5  26  150.48   34.60
   0  -5 -26  146.69   53.79
   0   5  26  164.78   33.90
   0  -5 -26  266.17   46.70
   0   0  27    1.90   18.00
   0   0 -27   23.30   18.90
   0   0 -27    6.10   30.70
   0   0  27   -5.70   16.60
   0   0 -27  -15.20   18.00
   0   0 -27   37.60   23.90
   0   0 -27   -8.50   15.50
   0   0  27   -9.40   20.80
   0   0  27    9.40   16.70
  -1   0 -27   -3.50   17.70
   1   0 -27    4.10   19.40
   1   0 -27    9.40   17.80
   1   0  27   52.19   22.10
  -1   0  27   44.30   19.80
   1   0 -27   49.00   23.20
  -1   0  27   46.00   12.50
   1   0  27   20.80   20.30
  -1   0 -27   36.50   24.20
  -1   0 -27   55.59   18.80
  -1   0  27   18.50   26.50
  -1   0  27   44.20   20.70
  -1   0  27   28.60   12.30
   1   0  27   45.60   18.90
   1   0 -27   27.00   22.20
  -1   0 -27   54.49   17.60
   1   0  27   31.50   24.30
   2   0 -27  121.79   28.10
   2   0 -27  160.88   28.60
   2   0  27  127.09   33.90
  -2   0  27  111.19   40.60
  -2   0 -27   98.59   22.50
   2   0  27  102.09   29.70
   2   0 -27   78.69   23.70
  -2   0 -27   93.59   26.10
  -2   0  27  113.99   31.00
   2   0 -27   96.99   26.10
   2   0  27  100.99   23.20
   2   0  27  103.89   23.30
  -2   0 -27  107.19   20.30
  -2   0  27  113.89   30.40
   3   0 -27   37.90   23.90
   3   0 -27   38.00   27.40
   3   0  27   38.40   37.50
  -3   0 -27   13.30   34.50
  -3   0  27  -40.00   43.90
  -3   0  27   29.30   41.80
   3   0  27   13.60   31.20
   3   0 -27   48.00   33.30
   3   0 -27   21.50   26.10
   3   0  27  -26.10   23.00
   0   1 -27   18.40   18.20
   0  -1  27   45.60   18.30
   0   1 -27   21.10   20.50
   0   1 -27   19.00   23.50
   0  -1 -27  -32.10   22.30
   0   1  27   19.60   23.10
   0  -1 -27    7.60   16.50
   0  -1  27   73.39   22.90
   0   1  27   22.00   17.70
   0   1  27   35.00   18.40
   0  -1  27   45.00   20.80
   0   1  27   15.90   23.40
   0  -1 -27   26.80   19.10
   0  -1 -27   50.69   22.90
   0  -1  27   54.79   21.60
   0   1 -27   44.30   17.80
   1  -1  27  206.98   33.60
   1  -1  27  148.89   42.30
   1   1 -27  145.89   27.90
  -1  -1 -27  134.39   23.30
  -1  -1 -27  142.79   25.10
   1   1 -27  143.29   32.40
   1  -1  27  159.48   27.00
   1  -1  27  142.59   29.30
  -1   1  27  210.28   28.20
   1   1 -27  119.29   23.50
  -1  -1 -27  195.58   31.50
  -1   1  27  145.29   24.40
  -1  -1 -27  100.59   29.70
  -1   1  27  160.28   33.70
   1   1  27  170.18   28.80
  -1  -1  27  152.38   30.40
  -1  -1  27  150.18   26.90
   1   1  27  134.79   28.60
   1  -1 -27  127.49   26.70
   1  -1 -27  122.89   25.80
  -1  -1  27  192.48   32.10
  -1   1 -27  132.09   21.50
  -1   1 -27  122.19   22.40
  -1   1 -27  149.39   27.20
  -1  -1  27  122.39   17.70
   1  -1 -27  178.68   30.00
   1   1  27  156.78   30.70
   1   1  27  136.99   24.90
  -1   1 -27  170.78   36.00
  -1   1 -27  113.39   23.20
   1  -1 -27  140.69   30.70
  -1  -1  27  155.48   34.20
   2   1 -27  115.69   24.60
   2  -1  27  192.18   33.70
   2  -1  27  122.09   28.50
  -2  -1 -27   56.59   24.20
   2   1 -27  160.78   28.80
   2  -1  27  104.49   22.90
  -2   1  27   82.59   37.80
  -2   1  27  126.59   31.80
  -2  -1 -27   94.19   26.30
   2  -1  27   94.29   34.90
  -2   1  27   94.89   32.10
   2   1 -27   82.69   29.90
   2  -1 -27   82.69   28.70
   2   1  27   91.59   22.50
  -2  -1  27   92.59   37.30
  -2   1 -27  107.99   23.00
  -2   1 -27  120.59   23.40
   2  -1 -27   85.59   24.80
   2  -1 -27   74.89   29.40
  -2  -1  27  116.49   29.70
  -2  -1  27   94.59   29.20
   2   1  27  104.09   32.40
   2  -1 -27   69.49   26.60
   2   1  27   78.79   27.70
  -2   1 -27  118.89   31.30
  -3   1  27  148.59   51.19
   3   1 -27   71.19   34.10
   3  -1  27  120.89   24.60
   3  -1  27  133.29   42.10
   3  -1  27   87.29   36.00
   3   1 -27   79.69   25.90
  -3  -1 -27  105.09   37.80
  -3   1  27  119.29   39.80
  -3  -1  27  124.59   51.99
   3   1  27  140.89   42.30
  -3   1 -27   68.59   40.10
   3  -1 -27  128.09   33.60
   3   1  27   76.69   40.10
   3  -1 -27  154.08   30.80
   3  -1 -27  106.59   28.90
  -3  -1  27  234.58   50.29
  -3   1 -27   72.59   33.50
   3   1  27   91.99   27.20
   3  -1 -27   60.99   34.20
   0  -2  27   23.70   23.00
   0   2  27   30.40   19.40
   0  -2 -27   19.40   27.00
   0   2  27   47.90   18.50
   0   2 -27    1.20   17.60
   0   2  27   59.49   19.70
   0  -2  27   54.09   20.70
   0  -2 -27   21.00   21.10
   0   2  27   11.10   22.50
   0  -2  27   33.20   19.50
   0   2 -27   28.00   18.00
   0   2 -27   32.60   20.70
   0  -2 -27   20.30   19.80
   0   2 -27    3.80   27.50
   1  -2  27   39.00   24.10
  -1  -2 -27   34.20   27.40
  -1  -2 -27   58.49   18.20
  -1   2  27   16.50   22.80
   1   2 -27   49.50   19.80
  -1   2  27   42.20   17.50
  -1  -2 -27   50.89   19.50
   1   2 -27   15.60   30.50
   1  -2  27  107.09   28.20
   1  -2  27   46.90   22.40
   1   2 -27   25.80   19.90
  -1   2  27   79.99   33.70
  -1  -2 -27   29.80   19.90
   1  -2 -27    4.50   23.20
   1  -2 -27   42.80   27.80
  -1  -2  27   19.20   27.30
   1   2  27   30.20   23.70
  -1  -2  27  -16.90   26.50
  -1  -2  27   46.30   23.60
  -1   2 -27   63.19   20.60
   1  -2 -27   70.99   24.50
  -1   2 -27   -1.30   28.70
  -1   2 -27   44.20   24.40
   1   2  27   34.70   19.60
   1   2  27   34.20   24.30
  -1   2 -27   84.09   20.60
   1  -2 -27   -7.70   20.40
  -1   2 -27   21.40   21.70
  -1  -2  27   38.10   16.20
  -2  -2 -27   76.09   24.40
  -2  -2 -27  147.09   31.70
  -2  -2 -27   47.40   25.10
   2   2 -27   50.39   27.60
  -2   2  27   53.59   39.10
   2  -2  27  117.59   28.60
   2   2 -27   90.39   25.30
  -2   2  27   66.69   30.90
   2  -2  27  128.29   32.10
  -2   2  27   90.69   32.80
   2   2 -27  117.29   28.60
  -2  -2  27   99.59   35.30
   2   2  27   54.89   26.30
  -2  -2  27  115.29   27.80
   2   2  27   89.09   29.70
   2  -2 -27   65.09   25.60
  -2   2 -27   71.99   32.10
  -2  -2  27  112.49   37.90
   2  -2 -27   98.99   31.00
   2  -2 -27    8.30   21.50
  -2   2 -27  106.89   26.60
  -2   2 -27   71.19   26.00
   2  -2 -27   39.90   26.00
   2   2  27   58.19   30.70
   0   3 -27   -1.60   20.40
   0   3  27    2.50   21.90
   0  -3 -27   34.60   20.90
   0  -3 -27   -0.80   23.50
   0  -3  27    8.20   20.30
   0   3  27  -12.20   25.90
   0   3  27   -9.90   18.70
   0  -3  27   30.10   23.50
   0   3  27   33.90   23.50
   0  -3 -27   21.20   22.10
   0   3 -27   19.90   30.30
   0  -3  27   24.30   26.00
   0  -3  27   13.80   25.50
   0   3 -27   17.10   21.70
   0  -3 -27    4.10   29.20
   0   3 -27   38.30   22.40
   1  -3  27   13.90   22.50
   1   3 -27   28.90   21.60
  -1  -3 -27   66.69   25.10
  -1   3  27   15.70   22.00
  -1  -3 -27   49.30   20.90
  -1  -3 -27   23.30   21.00
   1  -3  27   25.50   28.20
  -1  -3 -27   59.19   33.40
  -1   3  27  111.79   33.10
   1   3 -27   57.89   31.50
   1   3 -27   -5.70   18.00
   1   3 -27   56.49   25.50
  -1   3 -27   55.49   27.60
  -1   3 -27   24.30   25.60
  -1   3 -27  145.39   37.00
   1  -3 -27   67.59   29.30
   1  -3 -27   50.59   26.90
   1   3  27  -17.10   26.50
  -1  -3  27   50.59   30.50
   1  -3 -27   28.40   25.30
   1   3  27    1.30   25.70
  -1  -3  27   46.00   30.60
  -1   3 -27   53.59   21.70
  -1  -3  27   51.49   21.00
  -1   3 -27   55.49   26.10
   1  -3 -27   40.90   23.00
   1   3  27   34.20   23.20
   2   3 -27  -15.00   26.40
  -2  -3 -27   27.70   28.90
  -2   3  27   74.49   29.90
   2  -3  27   31.40   34.10
   2  -3  27   -6.50   30.90
  -2  -3 -27  -10.00   25.30
   2   3 -27   12.80   26.90
  -2   3  27  -28.20   27.90
   2   3 -27   47.80   26.20
  -2  -3 -27   42.60   28.60
  -2   3  27   15.60   41.00
   2  -3 -27  -56.59   30.60
  -2  -3  27   30.60   36.90
   2  -3 -27  -16.80   25.40
  -2   3 -27   35.10   32.30
  -2  -3  27    4.40   40.90
   2   3  27   -2.50   31.60
   2  -3 -27  -35.30   21.90
  -2   3 -27   24.30   29.50
   2  -3 -27   22.40   30.20
  -2  -3  27   21.80   27.20
   2   3  27   45.90   36.20
   0   4 -27   43.00   29.20
   0  -4  27   96.29   31.10
   0   4  27   32.60   30.80
   0   4 -27   74.69   29.20
   0  -4  27   76.29   34.20
   0  -4 -27   15.30   25.10
   0  -4  27   -7.70   25.10
   0  -4 -27   72.29   28.60
   0  -4 -27  -17.00   36.10
   0   4 -27   25.00   34.50
   0   4  27   -5.50   24.50
   0  -4 -27   -1.40   27.70
  -1  -4 -27   -2.40   30.50
   1   4 -27   25.50   27.40
   1  -4  27   10.10   32.30
   1   4 -27   12.80   35.30
   1  -4  27   49.90   31.30
  -1   4  27   -3.90   27.50
   1   4 -27   21.00   27.00
  -1   4  27   79.49   37.10
  -1  -4 -27   28.50   44.00
  -1   4 -27  -18.70   40.00
   1  -4 -27  -30.40   29.50
  -1  -4  27  -13.50   36.00
   1   4  27   47.20   32.00
  -1   4 -27   -1.10   31.20
  -1  -4  27    4.60   25.60
   1   4  27   55.19   35.40
   1   4  27    0.50   27.00
   1  -4 -27  -37.00   23.70
  -1   4 -27   -8.10   29.80
   1  -4 -27   41.40   27.50
   1  -4 -27  -48.90   35.80
  -1   4 -27    1.10   28.50
   0   0 -28  233.78   45.90
   0   0 -28  204.88   34.30
   0   0  28  135.69   40.80
   0   0 -28  163.38   27.60
   0   0  28  163.88   29.70
   0   0  28  183.28   30.10
   0   0  28  129.49   23.10
   0   0 -28  182.78   28.90
  -1   0  28  474.85   28.80
   1   0 -28  465.35   44.40
   1   0  28  420.86   42.60
   1   0  28  358.36   41.50
  -1   0  28  485.25   49.60
   1   0  28  499.65   45.80
  -1   0  28  511.75   58.29
  -1   0 -28  459.85   53.59
   1   0 -28  458.75   52.89
  -1   0  28  450.55   43.70
   1   0  28  462.25   42.00
  -1   0  28  479.25   41.90
  -1   0 -28  448.96   41.60
  -1   0 -28  410.76   36.80
  -1   0 -28  505.85   39.60
   1   0 -28  497.15   42.70
   1   0 -28  382.56   39.20
   2   0 -28   17.20   25.50
  -2   0  28    7.60   26.80
   2   0  28   -2.70   22.40
   2   0  28    3.10   29.20
   2   0 -28   49.30   24.10
   2   0 -28    3.70   23.00
  -2   0  28   -6.80   35.80
  -2   0 -28   13.00   24.20
  -2   0 -28   43.30   22.70
   2   0 -28   13.90   22.20
   2   0  28   62.59   21.80
   2   0  28   -1.40   25.70
  -2   0 -28   18.60   23.70
  -2   0  28    6.30   28.30
   3   0 -28  299.67   45.00
   3   0  28  275.57   33.80
  -3   0 -28  282.97   58.39
  -3   0  28  236.48   58.09
   3   0 -28  365.86   57.19
   3   0  28  234.58   44.20
   3   0 -28  439.76   63.89
   3   0  28  268.17   49.80
  -3   0  28  263.97   49.60
   0   1 -28  661.63   56.49
   0  -1 -28  750.02   48.20
   0   1  28  743.63   45.90
   0  -1  28  697.63   47.30
   0   1  28  690.53   44.50
   0   1 -28  732.93   45.90
   0   1  28  687.73   54.39
   0  -1 -28  737.33   47.30
   0  -1  28  759.52   53.99
   0   1  28  608.84   49.99
   0  -1 -28  731.73   57.29
   0  -1  28  796.12   44.80
   0   1 -28  753.42   49.20
   0  -1 -28  640.34   46.00
   0  -1  28  725.63   56.19
   1  -1  28  -41.00   22.30
   1  -1  28    7.90   20.50
  -1  -1 -28  -29.30   26.30
  -1   1  28  -15.10   17.30
  -1   1  28   36.20   30.70
   1  -1  28   14.00   19.00
   1   1 -28   -4.90   27.60
   1  -1  28   31.30   21.70
   1   1 -28   16.80   21.50
  -1   1  28    6.00   24.20
  -1  -1 -28    1.80   18.10
  -1  -1 -28   23.50   20.50
  -1  -1 -28   12.00   20.00
   1   1 -28   -2.90   20.60
  -1  -1  28   42.40   24.80
  -1   1 -28    6.70   18.00
   1   1  28   18.00   21.00
   1  -1 -28  -19.90   20.60
  -1  -1  28   21.60   24.40
  -1  -1  28  -27.80   28.10
  -1   1 -28   -0.50   18.60
  -1  -1  28    9.80   23.80
  -1   1 -28  -15.10   28.30
   1   1  28   -9.30   24.30
   1  -1 -28   36.90   24.00
   1   1  28   30.80   25.90
   1  -1 -28   -8.70   19.40
   1   1  28  -15.30   18.40
  -1  -1  28   -3.20   13.10
   1  -1 -28   31.70   25.60
  -1   1 -28   12.50   20.80
   2  -1  28  375.96   41.70
   2  -1  28  378.16   45.90
  -2   1  28  510.55   56.29
   2   1 -28  453.65   46.10
  -2   1  28  311.57   49.30
   2   1 -28  439.56   49.80
   2  -1  28  464.55   55.09
  -2   1  28  341.77   44.80
  -2  -1 -28  446.46   43.40
  -2  -1 -28  329.57   47.30
   2   1 -28  423.76   49.80
  -2  -1  28  460.65   52.39
   2  -1 -28  388.26   47.90
  -2   1 -28  419.36   41.40
  -2  -1  28  456.65   68.09
  -2   1 -28  402.26   49.99
   2  -1 -28  373.16   42.00
   2  -1 -28  370.46   48.20
   2   1  28  471.15   50.29
   2   1  28  344.57   42.70
   2  -1 -28  366.36   43.00
  -2   1 -28  432.06   39.40
   3  -1 -28   58.89   32.00
  -3   1 -28   33.10   47.80
   0  -2 -28   20.00   20.30
   0  -2 -28   13.80   22.40
   0  -2 -28  -12.60   25.80
   0   2  28  -18.10   25.00
   0  -2  28   60.09   21.00
   0   2  28  -14.40   18.90
   0  -2 -28   19.20   20.40
   0   2 -28    1.10   22.50
   0   2 -28   -8.60   19.90
   0  -2  28   30.80   23.50
   0  -2  28    1.70   25.10
   0   2  28   63.99   21.40
   1   2 -28   12.10   28.40
  -1  -2 -28   42.10   32.60
  -1  -2 -28   69.19   20.10
  -1   2  28   43.80   18.60
   1  -2  28   39.60   22.50
   1  -2  28   96.39   24.60
  -1  -2 -28   53.99   24.60
  -1   2  28   56.29   30.70
   1  -2  28   75.49   27.60
   1   2 -28   40.90   24.00
  -1  -2 -28    8.10   20.50
  -1   2  28   42.50   26.20
   1   2 -28   35.30   20.50
  -1   2 -28   37.20   30.80
   1   2  28   85.99   24.80
   1  -2 -28   55.69   26.20
   1   2  28   86.79   25.40
   1   2  28   49.99   26.30
  -1  -2  28   -7.30   29.90
  -1  -2  28   36.00   17.00
  -1   2 -28   53.39   23.20
  -1  -2  28   65.89   27.40
   1  -2 -28   73.79   25.10
   1  -2 -28   32.60   21.20
  -1   2 -28   31.60   25.40
   1  -2 -28   48.00   29.80
  -1  -2  28   39.00   25.90
  -2  -2 -28  154.48   33.90
  -2   2  28  114.59   41.80
   2  -2  28  215.28   42.20
   2  -2  28   55.69   31.80
  -2   2  28  156.08   37.50
   2   2 -28   74.69   25.80
  -2  -2 -28  142.39   28.90
   2   2 -28  128.09   32.10
   2   2 -28   59.49   28.50
  -2  -2 -28   49.30   28.00
  -2   2  28   82.79   33.90
   2   2  28   39.10   31.30
   2   2  28  117.69   27.80
   2  -2 -28  140.19   34.70
   2  -2 -28  124.09   36.50
  -2  -2  28  117.59   39.70
  -2  -2  28  127.19   53.49
   2  -2 -28   96.79   27.30
  -2  -2  28  119.79   48.20
   2   2  28  135.99   34.50
  -2   2 -28   92.19   32.00
   2  -2 -28   65.79   29.60
  -2   2 -28  143.19   28.60
  -2   2 -28  139.49   28.30
   0   3 -28  460.75   44.80
   0   3 -28  354.76   58.39
   0  -3 -28  434.16   59.49
   0  -3 -28  432.76   45.60
   0  -3 -28  441.06   44.60
   0   3  28  371.56   39.90
   0   3  28  486.45   53.79
   0  -3 -28  327.87   45.00
   0   3 -28  530.45   59.69
   0   3 -28  474.15   46.70
   0   3  28  471.65   48.00
   0   3  28  406.96   46.00
   0  -3  28  437.76   50.79
   0  -3  28  407.76   49.30
   0  -3  28  431.66   43.40
   0  -3  28  558.54   49.60
   1   3 -28   12.70   21.00
  -1  -3 -28  -17.50   23.70
  -1  -3 -28   16.00   44.10
   1   3 -28   37.50   23.20
  -1   3  28   16.60   25.20
  -1   3  28   64.79   32.40
   1  -3  28   37.10   28.60
   1   3 -28   85.29   29.50
  -1  -3 -28   88.89   28.40
  -1  -3 -28   70.99   29.70
   1  -3  28   23.90   28.80
   1   3 -28   28.90   33.70
  -1   3 -28   12.50   25.40
  -1  -3  28   45.00   34.00
  -1  -3  28   23.80   20.50
   1   3  28   51.39   26.70
   1   3  28   50.39   27.50
  -1   3 -28   -9.10   24.80
  -1  -3  28    9.80   33.20
  -1   3 -28   31.80   27.10
   1  -3 -28   28.50   28.50
  -1   3 -28  147.29   55.39
   1   3  28   84.19   32.20
   1  -3 -28   46.00   32.90
   1  -3 -28   47.30   22.70
   1  -3 -28   45.20   26.90
  -2  -3 -28  208.88   36.30
  -2   3  28  267.57   52.89
  -2  -3 -28  196.18   37.20
   2   3 -28  268.57   44.50
   2   3 -28  164.88   34.80
   2   3 -28  227.78   41.50
   2  -3  28  158.08   35.90
  -2   3  28  190.98   38.10
   2  -3  28  237.98   45.20
  -2   3  28  216.78   42.20
  -2  -3  28  242.88   50.99
  -2  -3  28  167.88   50.49
   2   3  28  233.88   41.20
   2  -3 -28  267.87   41.20
  -2  -3  28  215.08   38.10
   2  -3 -28  157.48   34.20
  -2   3 -28  154.28   33.50
   2  -3 -28  194.18   35.20
  -2   3 -28  245.98   41.90
   2   3  28  221.18   45.80
  -2   3 -28  248.98   41.20
   2   3  28  349.27   51.09
   0  -4 -28   14.00   39.90
   0   4 -28  -26.50   28.60
   0  -4 -28   38.30   26.80
   0   4 -28   64.59   28.50
   0   4  28   19.70   32.70
   0  -4  28  -24.80   26.40
   0  -4  28   23.70   34.30
   0  -4  28   79.29   35.50
   0   4  28   69.19   31.60
   0   4  28   17.60   32.60
   0  -4 -28  -10.30   28.40
   0  -4 -28   31.50   31.80
   0   4 -28   46.70   38.80
  -1  -4 -28  263.07   42.70
   1   4 -28  251.47   42.40
   1   4 -28  260.37   48.00
  -1  -4 -28  238.98   39.70
  -1  -4 -28  232.78   73.69
   1   4 -28  326.77   48.60
   1  -4  28  316.47   45.90
  -1   4  28  234.68   45.00
  -1   4  28  265.57   41.50
   1   4  28  233.88   44.00
  -1   4 -28  173.68   35.10
  -1   4 -28  306.97   47.80
  -1  -4  28  318.47   51.49
  -1   4 -28  298.27   40.20
   1  -4 -28  283.87   50.09
   1   4  28  297.47   43.40
   1  -4 -28  192.98   39.00
   1  -4 -28  350.66   56.49
   1  -4 -28  218.88   36.30
   1   4  28  246.38   40.20
   0   0  29    8.20   20.40
   0   0 -29    2.60   20.00
   0   0 -29  -12.60   26.40
   0   0 -29   28.80   22.10
   0   0  29   32.60   20.30
   0   0  29   -3.00   19.80
   0   0  29   53.29   28.50
   0   0 -29   26.50   22.00
   1   0  29    7.70   22.40
   1   0 -29    7.70   28.00
  -1   0  29   13.10   31.40
  -1   0 -29  -25.90   20.20
  -1   0  29   22.80   22.80
  -1   0 -29   -1.00   33.10
  -1   0  29   15.40   22.70
  -1   0 -29   24.90   18.70
  -1   0 -29  -20.60   18.20
   1   0  29    6.00   22.30
   1   0  29   39.90   22.90
   1   0  29   32.00   24.30
   1   0 -29  -19.40   21.60
   1   0 -29   34.10   22.80
   1   0 -29  -22.80   19.90
  -1   0  29    5.30   23.40
   2   0  29   51.49   24.30
  -2   0  29   96.49   34.90
   2   0 -29  117.39   31.00
   2   0 -29   63.29   29.40
  -2   0 -29  104.79   32.00
  -2   0 -29   57.29   25.10
   2   0 -29  116.19   29.10
   2   0  29   32.00   25.90
   2   0  29   62.09   29.00
   2   0  29  108.29   35.80
  -2   0  29   67.29   33.90
   2   0 -29   92.99   30.60
  -2   0  29   52.19   41.40
   0   1 -29  138.59   28.70
   0  -1 -29  122.89   26.10
   0  -1  29  168.18   32.40
   0   1  29  178.28   26.70
   0  -1 -29  154.28   31.20
   0  -1 -29  139.29   28.50
   0  -1  29  167.08   32.30
   0  -1  29  152.68   24.00
   0   1 -29  111.39   25.80
   0   1 -29  155.98   33.90
   0   1  29  127.29   26.80
   0  -1  29  127.79   27.90
   0  -1 -29  132.99   26.40
   0   1  29  114.19   23.20
   0   1  29  137.89   33.00
  -1   1  29   33.80   31.20
   1  -1  29   33.00   25.00
  -1  -1 -29   19.60   20.50
   1  -1  29   -0.50   28.00
   1   1 -29   25.60   28.10
   1  -1  29   28.90   20.70
   1   1 -29   -3.90   21.50
   1  -1  29   51.29   25.20
  -1  -1 -29   -8.60   21.20
  -1   1  29   14.50   23.90
   1   1 -29  -10.90   23.30
  -1  -1 -29   -7.70   17.70
  -1  -1 -29   38.30   32.40
  -1   1  29    8.00   21.40
   1  -1 -29   -0.10   26.40
   1   1  29   -1.20   23.80
   1  -1 -29   21.00   24.50
  -1   1 -29    9.20   24.20
  -1  -1  29   37.40   25.60
   1  -1 -29  -17.70   18.90
   1   1  29   49.80   26.60
   1   1  29   56.59   23.80
  -1  -1  29  -14.00   26.60
   1   1  29   -9.40   20.80
  -1  -1  29   33.10   26.50
   1  -1 -29    3.50   20.20
  -1   1 -29  -21.20   19.00
  -1   1 -29    9.70   21.30
  -2  -1 -29   -2.80   28.40
  -2   1  29   44.50   28.90
   2  -1  29   24.10   32.20
  -2  -1 -29    7.70   25.50
  -2   1  29   70.19   38.80
   2  -1  29   -1.20   29.30
  -2   1  29   -2.40   32.10
   2   1 -29   -2.60   27.90
   2  -1  29   25.60   29.60
   2   1 -29    0.30   24.20
   2   1 -29  -17.50   28.40
  -2   1 -29  -24.00   29.00
  -2   1 -29    8.40   23.30
   2   1  29   60.09   34.30
  -2  -1  29    7.80   38.90
   2  -1 -29   24.50   23.50
  -2   1 -29    1.60   24.10
   2  -1 -29   43.60   26.30
   2   1  29  -36.20   26.60
  -2  -1  29   12.60   32.00
   2  -1 -29  -27.80   28.50
   2  -1 -29  -22.20   26.40
   2   1  29   -0.10   23.50
   0  -2  29   51.99   27.90
   0  -2 -29   47.40   23.10
   0  -2  29   68.39   28.80
   0   2 -29   17.30   22.20
   0   2  29   99.29   32.50
   0   2 -29   25.60   21.80
   0   2  29   35.60   22.70
   0  -2 -29   41.30   24.70
   0   2 -29   68.19   34.50
   0   2  29   24.80   24.30
   0   2 -29   37.20   23.40
   0  -2 -29   56.79   23.50
   0  -2 -29    2.90   29.80
  -1  -2 -29  -13.80   21.00
  -1   2  29   -0.70   18.80
   1  -2  29    3.00   24.20
  -1   2  29   -1.40   25.30
  -1   2  29  -40.10   32.10
   1   2 -29  -12.00   22.40
  -1  -2 -29   -5.20   18.30
  -1  -2 -29  -23.00   35.00
  -1  -2 -29  -33.60   24.30
   1  -2  29  -35.60   25.20
   1   2 -29   22.90   20.80
  -1   2 -29   15.90   23.30
   1  -2 -29   -2.30   23.40
   1  -2 -29   74.29   27.30
  -1  -2  29   -4.00   17.90
  -1  -2  29   38.50   29.20
   1  -2 -29   -0.50   25.60
   1  -2 -29  -50.29   26.40
  -1  -2  29  -32.20   26.50
  -1   2 -29   23.30   33.40
   1   2  29  -24.60   25.50
   1   2  29   29.20   24.90
  -1  -2  29  -37.00   31.30
   1   2  29   -4.70   22.10
  -1   2 -29   17.50   26.60
   2  -2  29  292.17   48.40
  -2   2  29  304.87   46.20
   2   2 -29  210.88   33.90
   2   2 -29  402.76   51.39
  -2  -2 -29  365.76   46.70
  -2  -2 -29  284.17   40.40
  -2   2  29  318.27   54.09
   2   2 -29  361.56   48.90
  -2   2  29  215.58   37.70
  -2  -2 -29  265.77   44.30
   2  -2  29  255.27   39.80
  -2   2 -29  184.68   42.60
   2  -2 -29  231.08   43.50
  -2   2 -29  288.57   42.70
   2  -2 -29  293.07   45.90
  -2  -2  29  222.68   51.99
  -2   2 -29  316.37   45.40
   2   2  29  271.37   47.70
   2   2  29  431.66   59.19
   2  -2 -29  399.76   56.89
   2   2  29  264.37   44.20
  -2  -2  29  368.36   51.89
   2  -2 -29  353.56   49.90
   0  -3  29   19.00   29.10
   0   3 -29  -18.00   24.60
   0   3  29   17.00   24.60
   0   3  29  -24.30   22.00
   0   3  29  -44.50   28.40
   0   3 -29   24.50   26.10
   0  -3  29   38.00   28.30
   0  -3 -29  -21.70   23.70
   0   3 -29   18.50   24.20
   0  -3  29    1.60   24.20
   0  -3 -29   22.90   36.90
   0  -3 -29  -10.00   25.60
   0   3 -29   10.70   35.10
   0  -3 -29  -29.50   24.20
   0   3  29   18.30   26.90
  -1  -3 -29   10.80   28.80
  -1  -3 -29   18.30   26.50
   1   3 -29   50.69   27.50
  -1   3  29   -3.40   34.00
   1  -3  29   51.79   33.40
   1  -3  29   46.80   28.20
  -1  -3 -29   11.60   36.50
   1   3 -29   65.89   34.80
   1   3 -29   20.70   25.10
  -1   3  29    6.10   29.60
   1  -3 -29   -7.60   28.10
  -1   3 -29   52.69   30.00
   1  -3 -29   22.40   25.80
   1  -3 -29   15.00   28.40
   1   3  29   40.40   24.90
  -1  -3  29   11.70   37.70
  -1   3 -29   22.50   26.10
   1   3  29   21.60   30.60
  -1   3 -29    8.60   27.30
   1  -3 -29   -2.30   32.80
   1   3  29  107.19   31.80
  -1   3 -29   55.39   29.60
  -1  -3  29  -19.60   36.60
  -1  -3  29   43.80   27.40
  -1   3 -29   59.59   38.60
   0   4 -29   38.60   31.70
   0  -4 -29   72.69   32.20
   0  -4  29   47.40   39.90
   0  -4  29   38.40   36.60
   0   4 -29   30.60   42.40
   0  -4  29   11.80   28.30
   0  -4 -29   51.59   44.40
   0   4  29    5.70   26.20
   0  -4 -29   80.59   32.20
   0   4  29   29.90   33.90
   0  -4 -29   -8.80   35.50
   0   4 -29  108.69   34.40
   0   0 -30  137.79   34.90
   0   0 -30   85.89   24.10
   0   0 -30   95.09   26.90
   0   0 -30  140.59   29.80
   0   0  30  105.79   24.80
   0   0  30  110.29   24.30
   0   0  30   95.79   30.30
   0   0  30   92.69   29.70
   1   0 -30  472.55   45.80
  -1   0 -30  465.05   44.90
  -1   0  30  458.95   49.80
   1   0  30  400.06   46.20
   1   0  30  460.15   51.69
   1   0  30  491.85   45.40
   1   0 -30  467.65   51.39
  -1   0 -30  506.85   42.10
  -1   0  30  437.66   66.19
  -1   0  30  508.95   48.20
  -1   0 -30  387.76   46.70
   1   0 -30  378.96   45.20
   1   0 -30  485.75   56.59
   1   0  30  476.15   48.50
  -1   0  30  523.15   54.69
  -1   0 -30  515.35   63.99
  -2   0  30  189.38   55.49
   2   0 -30  159.88   37.80
   2   0 -30  135.39   33.70
  -2   0 -30  100.29   35.60
  -2   0  30  128.09   40.40
   2   0  30  125.69   37.10
  -2   0 -30  171.28   31.20
   2   0 -30  150.88   32.90
   2   0 -30  123.39   34.80
   2   0  30  180.78   41.30
  -2   0  30  127.69   38.10
   0   1 -30  375.36   42.20
   0   1 -30  253.17   41.20
   0  -1 -30  393.56   39.70
   0  -1  30  428.66   50.79
   0  -1 -30  278.07   39.40
   0  -1  30  393.46   50.09
   0   1 -30  353.66   42.30
   0  -1 -30  330.77   39.30
   0   1  30  373.26   38.70
   0  -1 -30  325.87   46.00
   0   1  30  378.56   49.80
   0   1  30  416.16   48.00
   0  -1  30  368.96   38.70
   0   1  30  296.97   36.50
   0  -1  30  343.87   43.80
  -1   1  30  258.77   43.00
   1   1 -30  338.07   43.80
   1  -1  30  406.66   47.70
   1  -1  30  282.27   46.90
  -1   1  30  292.77   42.80
  -1   1  30  372.16   39.20
  -1  -1 -30  291.97   41.70
  -1  -1 -30  310.07   37.50
  -1  -1 -30  263.17   47.60
  -1  -1 -30  297.67   42.30
  -1   1  30  419.76   59.49
   1   1 -30  272.37   42.00
   1  -1  30  345.17   45.40
   1  -1  30  257.77   40.70
   1   1 -30  270.97   42.50
   1  -1 -30  274.37   42.20
  -1  -1  30  361.16   47.50
   1  -1 -30  259.27   39.50
  -1   1 -30  261.57   38.70
  -1   1 -30  278.87   40.60
  -1  -1  30  242.08   35.60
   1   1  30  323.37   51.39
  -1  -1  30  284.87   47.90
   1   1  30  257.87   42.90
   1   1  30  337.17   47.00
  -1   1 -30  303.27   40.40
   1   1  30  222.38   35.60
   1  -1 -30  318.97   43.50
  -1  -1  30  264.67   40.80
  -2   1  30  105.69   39.60
  -2   1  30  172.78   45.10
   2  -1  30   80.29   33.50
   2   1 -30   91.19   30.00
   2   1 -30   49.99   29.70
  -2   1  30  133.49   36.80
   2   1 -30   73.69   31.40
  -2  -1 -30   93.09   31.10
   2  -1  30  109.89   27.20
   2  -1  30   29.30   39.50
  -2  -1 -30  138.79   39.40
   2  -1 -30   90.99   30.50
   2  -1 -30   42.20   31.50
   2   1  30   64.19   34.00
  -2  -1  30   58.49   35.80
  -2  -1  30   67.19   46.80
   2  -1 -30   83.39   28.40
  -2   1 -30   27.00   27.30
  -2   1 -30   20.40   34.00
   2   1  30  156.68   39.70
   2  -1 -30   60.39   33.40
   2   1  30   66.99   24.80
   0  -2 -30   89.99   26.40
   0  -2 -30   27.10   35.50
   0   2 -30   35.90   25.50
   0   2  30   19.40   22.10
   0   2  30   23.00   30.90
   0   2 -30   22.30   22.90
   0  -2  30   -4.80   27.50
   0   2 -30    9.90   23.20
   0  -2 -30   27.10   24.50
   0  -2  30   73.89   24.90
   0  -2 -30   30.20   24.70
   0   2  30   41.30   25.60
   0   2 -30  -22.50   31.30
   0  -2  30   -6.30   27.70
   0   2  30   26.00   24.20
   1   2 -30   82.29   28.00
   1   2 -30   85.59   38.00
  -1   2  30  119.39   25.60
  -1  -2 -30   96.69   29.80
   1   2 -30  134.09   27.60
   1  -2  30   61.19   31.80
  -1   2  30  137.49   32.00
  -1  -2 -30  144.89   34.20
  -1   2  30  104.29   37.00
  -1  -2 -30   37.50   37.90
   1  -2  30  121.89   29.90
  -1  -2 -30  114.89   25.30
  -1  -2  30   46.40   36.80
  -1  -2  30  107.69   37.40
   1  -2 -30  138.69   36.60
  -1  -2  30  101.79   32.30
  -1   2 -30   93.09   29.80
  -1   2 -30  150.88   41.80
   1   2  30   99.79   29.50
   1   2  30   89.89   32.90
   1  -2 -30  102.49   27.00
  -1   2 -30  100.99   31.00
   1   2  30   47.70   28.00
   1   2  30   79.69   33.70
   1  -2 -30   94.29   29.10
   1  -2 -30  136.09   31.30
  -2  -2 -30   85.99   34.30
   2   2 -30  107.19   32.30
  -2   2  30  147.69   39.50
   2  -2  30  123.59   32.60
   2   2 -30   52.99   28.50
  -2   2  30  170.18   50.49
   2   2 -30  136.39   33.80
  -2  -2 -30  146.89   34.50
  -2  -2 -30  162.28   34.80
  -2   2  30   97.79   34.50
  -2  -2  30  145.59   45.60
   2  -2 -30   77.59   32.10
  -2   2 -30  101.99   31.50
  -2   2 -30   82.39   33.70
   2  -2 -30  117.59   35.40
   2   2  30   85.89   33.10
  -2   2 -30   96.09   29.70
   2   2  30  141.29   39.90
   2   2  30   60.09   37.00
   2  -2 -30  152.28   34.80
  -2  -2  30   78.69   44.70
   2  -2 -30  149.99   34.10
   0  -3 -30   22.30   27.20
   0   3  30  -16.10   26.10
   0  -3  30  -12.90   25.10
   0   3 -30   -2.20   26.50
   0   3  30  -25.00   23.50
   0  -3 -30   88.99   30.30
   0  -3  30   29.90   33.60
   0   3 -30   15.40   25.90
   0  -3 -30   40.40   25.90
   0   3  30  -17.50   34.60
   0  -3 -30  -47.40   35.50
   0  -3  30   69.19   32.00
   0   3 -30   10.30   26.60
   1   3 -30   78.29   28.50
  -1  -3 -30  115.19   33.80
  -1   3  30   94.39   41.10
  -1   3  30   79.79   30.20
   1   3 -30   59.69   38.90
   1   3 -30  136.29   34.00
   1  -3  30  118.79   33.10
  -1  -3 -30  103.19   35.20
   1  -3  30   82.89   34.00
  -1  -3 -30   78.69   45.80
   1   3  30   40.40   34.70
   1  -3 -30   70.49   26.60
  -1   3 -30  132.79   34.80
  -1  -3  30   62.59   39.70
  -1   3 -30   25.40   29.10
   1  -3 -30   55.19   29.60
  -1   3 -30  141.69   51.59
  -1   3 -30  132.69   33.90
   1   3  30   91.09   29.90
   1   3  30   93.59   32.20
   1  -3 -30  105.09   33.30
   1  -3 -30   88.79   39.10
  -1  -3  30   71.69   40.70
   0   0 -31    8.00   34.80
   0   0  31   57.99   22.90
   0   0 -31   28.80   24.70
   0   0 -31   -6.60   23.10
   0   0  31   27.70   32.50
   0   0  31   -7.30   22.80
   0   0 -31   -1.80   21.50
   0   0  31   15.00   24.40
   1   0  31   -3.00   28.90
  -1   0 -31   52.29   22.80
   1   0 -31   -2.20   26.10
   1   0  31   91.59   31.90
  -1   0 -31  -19.80   36.20
  -1   0 -31   35.70   22.90
  -1   0  31   59.69   29.40
  -1   0 -31   26.00   27.70
  -1   0  31   30.60   36.90
   1   0 -31   32.70   32.30
   1   0 -31   32.50   27.20
   1   0 -31    8.70   24.00
  -1   0  31   22.70   27.80
   1   0  31   41.30   23.80
  -1   0  31   35.90   25.00
   1   0  31  -16.10   27.20
   2   0  31   13.30   26.40
  -2   0  31   33.20   38.50
   2   0 -31  -17.20   27.80
  -2   0 -31  -17.30   27.30
   2   0 -31   39.20   33.50
   2   0 -31   37.20   31.90
  -2   0  31   29.50   36.50
   2   0  31  -18.10   34.90
  -2   0 -31   28.60   35.00
  -2   0  31   58.89   45.90
   2   0  31  -49.99   32.70
   2   0 -31    8.70   34.80
   0   1 -31   39.20   26.10
   0  -1 -31   10.50   25.40
   0  -1  31   -6.90   23.70
   0  -1 -31   -0.50   23.80
   0  -1 -31   38.30   26.00
   0   1  31   40.10   25.50
   0   1  31   -1.30   24.20
   0  -1 -31    0.70   36.00
   0  -1  31   23.30   29.40
   0  -1  31   15.80   24.10
   0   1 -31  -22.30   29.50
   0   1 -31  -28.20   24.60
   0   1  31   19.90   33.20
   0  -1  31   53.99   31.20
   1   1 -31   27.90   27.60
  -1  -1 -31  -27.90   26.80
   1  -1  31   77.09   30.70
   1  -1  31  -13.60   26.50
   1  -1  31   10.70   28.70
  -1  -1 -31  -15.10   22.00
  -1   1  31   32.00   39.20
  -1   1  31  -11.20   27.40
   1  -1  31   14.00   25.60
  -1  -1 -31    6.50   27.10
   1   1 -31   83.29   33.00
  -1  -1 -31   63.19   37.00
  -1   1  31   39.40   25.30
  -1   1  31   61.99   29.60
   1   1 -31   -1.40   25.70
  -1   1 -31   46.00   29.80
   1  -1 -31   15.50   30.60
  -1  -1  31  -29.20   37.20
   1  -1 -31   10.10   27.50
   1   1  31  -12.80   28.30
  -1   1 -31   25.90   26.70
  -1   1 -31   22.40   24.70
  -1  -1  31  -52.99   30.60
   1   1  31  -39.40   24.00
  -1   1 -31   62.09   36.20
   1  -1 -31   16.50   23.70
   1   1  31   27.60   29.10
  -1  -1  31   12.20   29.30
   1  -1 -31    3.10   27.40
  -1  -1  31   19.00   31.80
   1   1  31   62.69   33.20
   2   1 -31   37.00   32.40
   2   1 -31  -18.00   29.90
   2   1 -31   24.40   31.20
   2  -1  31   61.89   27.60
   2  -1  31  -39.50   38.80
  -2   1  31   64.29   45.00
  -2   1  31   40.10   37.50
   2  -1  31   65.59   34.30
  -2   1  31    0.00   37.00
  -2  -1 -31  -45.70   28.10
  -2  -1 -31   11.50   35.40
  -2  -1  31  -48.20   34.40
   2   1  31   62.49   30.70
   2  -1 -31  -36.70   29.50
  -2   1 -31   31.60   28.60
  -2  -1  31   14.40   41.60
   2   1  31   25.50   38.70
   2   1  31   13.70   34.30
   2  -1 -31   13.20   36.60
  -2   1 -31  -66.19   34.30
   2  -1 -31   20.60   28.20
   2  -1 -31   23.00   32.20
   2   1  31  -25.90   30.00
   0  -2  31  -16.20   33.70
   0  -2  31    5.90   29.20
   0   2 -31   46.90   22.70
   0  -2 -31   11.90   32.50
   0  -2  31    3.50   24.70
   0   2 -31  -29.20   24.50
   0   2  31  -34.30   34.30
   0  -2 -31   69.19   24.90
   0   2  31    8.90   28.60
   0   2  31   30.40   36.50
   0   2  31  -44.60   23.40
   0   2 -31   31.00   35.50
   0   2 -31   -1.40   27.00
   0  -2 -31   61.49   26.00
   0  -2 -31    6.00   23.10
   1   2 -31   43.90   26.50
   1   2 -31   47.50   28.20
  -1  -2 -31   70.79   32.40
   1  -2  31   70.89   32.10
  -1  -2 -31  126.49   42.90
   1  -2  31   86.39   32.20
   1   2 -31   36.80   35.10
  -1   2  31   80.89   46.50
  -1   2  31   54.49   29.50
  -1  -2 -31   68.19   30.80
   1  -2 -31   52.09   31.50
   1   2  31  118.69   34.20
  -1  -2  31   73.29   34.10
  -1  -2  31   57.69   35.30
  -1   2 -31   39.20   41.10
  -1   2 -31   93.89   28.60
   1  -2 -31   71.29   28.80
   1  -2 -31    6.70   31.50
   1   2  31   57.59   29.20
  -1   2 -31   60.89   30.70
   1  -2 -31   42.10   36.20
  -1  -2  31  101.29   40.20
  -1   2 -31  104.79   32.40
   1   2  31   -1.60   31.60
   1   2  31   95.29   31.40
   0  -3  31   93.39   37.60
   0  -3  31   41.40   32.70
   0  -3  31  -17.00   26.70
   0   3 -31   91.99   41.00
   0  -3 -31  -22.60   30.80
   0   3 -31   33.90   30.60
   0   3  31  -24.00   27.20
   0   3 -31   57.69   29.90
   0   3  31   20.80   30.40
   0  -3 -31   35.60   28.40
   0  -3 -31  -38.20   34.10
   0   3  31   87.09   37.30
   1   3 -31   22.50   41.90
   1  -3  31   33.10   32.70
   1   3 -31   36.20   39.20
  -1  -3 -31   36.70   32.40
  -1  -3 -31   18.00   31.90
  -1   3  31   43.80   59.59
  -1   3  31   73.39   34.80
   1  -3 -31   -0.90   35.60
   1   3  31  -22.20   31.60
   1   3  31   33.50   36.50
   1   3  31   84.49   32.40
   1  -3 -31   36.30   46.00
   1  -3 -31   43.60   39.60
  -1  -3  31   40.20   42.80
  -1   3 -31   20.60   32.20
   0   0 -32  402.16   47.70
   0   0  32  326.57   54.49
   0   0  32  284.87   42.00
   0   0 -32  326.27   49.80
   0   0  32  391.06   59.89
   0   0 -32  430.46   47.90
   0   0 -32  303.87   42.30
  -1   0 -32  195.38   48.10
   1   0 -32  131.89   34.80
   1   0  32  200.98   38.90
  -1   0  32  267.37   51.49
  -1   0  32  232.68   37.10
  -1   0 -32  168.08   33.20
  -1   0  32  268.37   44.10
   1   0  32  189.08   37.40
  -1   0 -32  143.19   29.70
   1   0 -32  169.28   35.10
   1   0 -32  214.88   39.10
   1   0 -32  113.19   32.60
   1   0  32  244.68   39.70
  -1   0 -32  192.68   36.90
   1   0  32  137.59   34.90
   0   1  32   84.79   29.20
   0  -1  32  -11.10   33.40
   0  -1  32   39.40   25.70
   0  -1 -32   -8.10   26.80
   0  -1  32   70.19   31.80
   0  -1 -32   20.60   25.90
   0   1  32   -8.40   36.50
   0  -1  32   33.20   27.60
   0   1  32   24.00   34.00
   0   1 -32   41.70   28.20
   0   1  32   34.80   26.50
   0   1 -32    9.60   30.90
   0  -1 -32   27.60   25.50
   0  -1 -32  112.79   38.50
   1   1 -32  244.38   45.80
  -1  -1 -32  234.18   40.70
  -1  -1 -32  354.46   42.00
   1  -1  32  367.56   56.39
  -1  -1 -32  284.37   49.70
  -1  -1 -32  270.77   40.70
  -1   1  32  341.17   55.29
  -1   1  32  307.77   49.90
   1  -1  32  276.97   46.60
   1   1 -32  233.28   37.40
  -1   1  32  173.88   41.80
   1  -1  32  294.57   49.90
   1   1 -32  280.27   47.90
  -1   1 -32  354.86   48.40
   1  -1 -32  327.97   47.80
  -1   1 -32  199.48   45.30
  -1  -1  32  292.37   43.50
   1  -1 -32  321.17   53.49
   1  -1 -32  248.68   40.60
   1   1  32  269.47   44.20
  -1  -1  32  205.48   49.10
  -1  -1  32  348.97   48.70
  -1   1 -32  313.77   51.69
   1   1  32  264.37   44.00
   1  -1 -32  213.28   44.90
  -1   1 -32  328.17   51.69
   1   1  32  360.26   48.90
   1   1  32  335.57   49.80
   0  -2 -32  474.95   67.59
   0   2 -32  375.36   52.29
   0   2 -32  361.06   47.00
   0  -2 -32  427.06   49.40
   0  -2  32  439.66   59.69
   0  -2 -32  313.47   46.40
   0  -2 -32  470.05   53.99
   0  -2  32  342.27   60.89
   0   2  32  365.26   46.70
   0   2 -32  448.16   53.69
   0   2  32  423.86   67.19
   0   2 -32  456.55   53.09
   0   2  32  397.76   57.59
  -1  -2 -32  -24.50   31.10
  -1   2  32  -17.50   29.00
   1   2 -32  -26.40   26.20
   1   2 -32   31.50   28.50
  -1   2  32   34.80   31.60
   1  -2  32  -28.40   30.90
  -1  -2 -32   39.10   46.90
   1  -2  32  -13.40   31.30
  -1  -2 -32   10.20   29.70
  -1   2  32   73.09   44.20
   1   2 -32   80.69   42.90
   1  -2 -32  -13.90   27.20
   1  -2 -32  -30.70   34.50
  -1  -2  32   -3.50   36.40
   1  -2 -32   -4.00   29.10
  -1  -2  32    2.70   36.90
   1   2  32   -0.60   29.80
   1  -2 -32    5.90   29.90
  -1   2 -32    0.90   30.40
  -1   2 -32   -7.10   32.00
  -1   2 -32  -10.00   68.69
  -1   2 -32   57.19   30.50
   1   2  32    3.10   34.50
   1   2  32  -22.10   29.60
  -1  -2  32   -9.10   39.70
   0   0 -33   19.60   27.50
   0   0 -33  -15.50   26.40
   0   0  33   -4.70   30.30
   0   0  33  -29.10   28.60
   0   0 -33   38.40   39.00
   0   0  33   18.70   38.90
  -1   0  33   16.40   40.80
   1   0 -33   -3.20   35.70
   1   0 -33  -32.20   28.80
  -1   0  33  -40.00   42.60
  -1   0  33    6.00   33.20
  -1   0 -33  -25.60   29.70
   1   0  33    8.80   28.60
  -1   0 -33  -12.00   31.50
  -1   0 -33   99.89   43.70
   1   0  33   36.00   34.10
   1   0 -33  -38.40   27.40
   1   0  33  -38.00   35.60
   1   0  33  -48.20   29.30
  -1   0  33   61.99   35.30
  -1   0 -33   25.70   25.80
   0  -1 -33  -18.00   39.40
   0  -1  33  -13.30   28.00
   0  -1  33   59.69   39.80
   0   1  33    9.60   25.30
   0  -1 -33  -52.89   25.80
   0  -1 -33   24.20   27.20
   0   1 -33   39.90   27.60
   0   1 -33   62.39   39.60
   0  -1  33   23.80   35.00
   0   1  33   -4.00   31.40
   0   1 -33   29.70   29.00
   0  -1  33   82.09   29.00
   0  -1 -33   10.80   29.00
   0   1  33   -0.20   36.20
  -1  -1 -33   57.29   32.80
   1  -1  33  -16.60   31.40
  -1   1  33    2.00   32.60
  -1   1  33   43.90   30.90
  -1  -1 -33   80.09   49.40
   1   1 -33  -31.00   28.40
   1   1 -33   72.59   39.70
   1  -1  33    4.20   27.90
   1   1 -33   33.00   28.50
  -1   1  33   23.80   35.30
  -1   1  33   32.20   47.30
  -1  -1 -33   -8.80   31.10
   1   1  33  -18.40   31.20
   1   1  33   54.19   32.90
   1   1  33  -21.70   35.50
  -1  -1  33   71.59   38.90
  -1   1 -33  -35.70   53.49
  -1  -1  33    0.10   32.80
   1   1  33   78.09   37.40
   1  -1 -33   69.89   29.80
  -1   1 -33   22.90   32.00
  -1   1 -33   76.89   32.70
  -1   1 -33    8.00   28.50
  -1  -1  33   73.39   44.60
   1  -1 -33   59.89   29.90
   1  -1 -33   19.10   31.70
   1  -1 -33   27.40   36.70
   0   2  33  -32.40   30.40
   0   2  33   25.10   37.30
   0  -2  33  -20.70   39.60
   0   2 -33    5.80   29.70
   0   2  33   -9.90   30.00
   0  -2  33  -13.80   28.50
   0  -2 -33  -23.60   31.80
   0   2 -33  -31.70   34.40
   0   2 -33   39.40   32.60
   0  -2 -33  -34.30   43.50
   0  -2 -33    1.20   37.50
   0  -2 -33   -8.90   29.10
   0   2 -33  -53.99   42.40
   0   0 -34  238.98   49.50
   0   0  34  246.18   40.60
   0   0 -34  191.58   39.70
   0   0  34  273.87   52.89
   0   0 -34  236.08   36.40
   0   0  34  232.08   38.60
   0   1 -34    2.40   30.50
   0   1 -34  -14.10   44.70
   0   1 -34  -12.70   28.00
   0   1  34   -9.50   33.80
   0   1  34    7.60   29.40
   0   1  34  -54.39   44.20
   0  -1  34   68.19   42.20
   0   1 -34  -13.80   44.30
   0  -1  34  -28.70   32.70
   0  -1  34   -6.50   36.10
   0  -1 -34   13.80   32.00
   0  -1 -34   94.39   43.60
   0  -1 -34  -52.09   44.80
   0   0   0    0.00    0.00

_computing_structure_solution     'SHELXT 2014/5 (Sheldrick, 2014)'
;
_shelx_hkl_checksum              7777
_olex2_submission_special_instructions 'No special instructions were received'
loop_
_space_group_symop_operation_xyz
'x, y, z'
'-x+1/2, -y, z+1/2'
'-x, y+1/2, -z+1/2'
'x+1/2, -y+1/2, -z'
loop_
_atom_site_label
_atom_site_type_symbol
_atom_site_fract_x
_atom_site_fract_y
_atom_site_fract_z
_atom_site_U_iso_or_equiv
_atom_site_adp_type
_atom_site_occupancy
_atom_site_site_symmetry_order
_atom_site_calc_flag
_atom_site_refinement_flags_posn
_atom_site_refinement_flags_adp
_atom_site_refinement_flags_occupancy
_atom_site_disorder_assembly
_atom_site_disorder_group
K001 K -0.21483(11) -0.01014(9) 0.29480(2) 0.01073(12) Uani 1 1 d . . . . .
O002 O 0.2757(6) 0.6806(3) 0.30398(6) 0.0130(4) Uani 1 1 d . . . . .
O003 O 0.2757(7) 0.2947(3) 0.31018(6) 0.0138(4) Uani 1 1 d . . . . .
O004 O 0.6153(5) 0.7204(3) 0.39499(7) 0.0161(4) Uani 1 1 d . . . . .
C005 C 0.3394(5) 0.4946(5) 0.32654(8) 0.0105(4) Uani 1 1 d . . . . .
C006 C 0.5139(5) 0.5061(5) 0.37773(8) 0.0111(4) Uani 1 1 d . . . . .
C007 C 0.7570(7) 0.4605(5) 0.45499(9) 0.0209(6) Uani 1 1 d . . . . .
H007 H 0.841081 0.394053 0.485156 0.025 Uiso 1 1 calc R . . . .
C008 C 0.7629(8) 0.6859(5) 0.44217(9) 0.0202(6) Uani 1 1 d . . . . .
H008 H 0.854919 0.802036 0.462641 0.024 Uiso 1 1 calc R . . . .
C009 C 0.5958(8) 0.3442(5) 0.41301(10) 0.0166(6) Uani 1 1 d . . . . .
H009 H 0.554969 0.186503 0.410482 0.020 Uiso 1 1 calc R . . . .
loop_
_atom_site_aniso_label
_atom_site_aniso_U_11
_atom_site_aniso_U_22
_atom_site_aniso_U_33
_atom_site_aniso_U_23
_atom_site_aniso_U_13
_atom_site_aniso_U_12
K001 0.0100(2) 0.0071(2) 0.0152(2) 0.0005(2) -0.00112(18) 0.0003(3)
O002 0.0153(11) 0.0087(7) 0.0150(8) 0.0008(6) -0.0013(9) 0.0002(8)
O003 0.0144(11) 0.0077(7) 0.0193(8) -0.0023(6) -0.0016(9) -0.0012(8)
O004 0.0204(11) 0.0127(9) 0.0152(9) -0.0022(7) -0.0047(8) -0.0031(8)
C005 0.0073(9) 0.0107(10) 0.0134(10) 0.0003(11) 0.0018(7) 0.0020(13)
C006 0.0121(10) 0.0096(11) 0.0117(10) -0.0004(12) 0.0025(8) -0.0010(13)
C007 0.0197(12) 0.0297(16) 0.0132(10) 0.0042(10) -0.0028(9) 0.0055(16)
C008 0.0208(14) 0.0268(14) 0.0130(11) -0.0039(10) -0.0029(12) 0.0001(14)
C009 0.0185(14) 0.0135(13) 0.0178(13) 0.0013(11) 0.0019(12) 0.0024(11)
loop_
_atom_type_symbol
_atom_type_description
_atom_type_scat_dispersion_real
_atom_type_scat_dispersion_imag
_atom_type_scat_source
C C 0.0033 0.0016 'International Tables Vol C Tables 4.2.6.8 and 6.1.1.4'
H H 0.0000 0.0000 'International Tables Vol C Tables 4.2.6.8 and 6.1.1.4'
K K 0.2009 0.2494 'International Tables Vol C Tables 4.2.6.8 and 6.1.1.4'
O O 0.0106 0.0060 'International Tables Vol C Tables 4.2.6.8 and 6.1.1.4'
loop_
_geom_angle_atom_site_label_1
_geom_angle_atom_site_label_2
_geom_angle_atom_site_label_3
_geom_angle
_geom_angle_site_symmetry_1
_geom_angle_site_symmetry_3
_geom_angle_publ_flag
K001 K001 K001 180.00(3) 1_455 1_655 ?
O002 K001 K001 138.18(5) 1_445 1_655 ?
O002 K001 K001 137.11(5) 1_545 1_455 ?
O002 K001 K001 42.89(5) 1_545 1_655 ?
O002 K001 K001 94.97(5) 3_545 1_655 ?
O002 K001 K001 41.82(5) 1_445 1_455 ?
O002 K001 K001 85.03(5) 3_545 1_455 ?
O002 K001 O002 95.29(5) 1_545 1_445 ?
O002 K001 O002 106.09(4) 1_445 3_545 ?
O002 K001 O002 114.35(4) 1_545 3_545 ?
O002 K001 O003 84.19(5) 1_545 . ?
O002 K001 O003 82.09(5) 1_445 1_455 ?
O002 K001 O003 76.44(5) 1_445 3_545 ?
O002 K001 O003 45.92(4) 3_545 3_545 ?
O002 K001 O003 166.38(5) 1_545 1_455 ?
O002 K001 O003 83.28(5) 1_545 3_545 ?
O002 K001 O004 75.20(5) 1_545 1_445 ?
O002 K001 O004 55.34(5) 1_445 1_445 ?
O002 K001 O004 160.87(6) 3_545 1_445 ?
O002 K001 C005 98.90(6) 1_445 1_455 ?
O002 K001 C005 78.12(6) 1_545 1_445 ?
O002 K001 C005 80.78(5) 3_545 1_455 ?
O002 K001 C005 23.10(6) 3_545 3_545 ?
O002 K001 C005 119.97(5) 3_545 1_445 ?
O002 K001 C005 155.41(5) 1_545 1_455 ?
O002 K001 C005 102.02(6) 1_545 3_545 ?
O002 K001 C005 88.62(6) 1_445 3_545 ?
O002 K001 C005 18.67(5) 1_445 1_445 ?
O003 K001 K001 94.70(5) 3_545 1_655 ?
O003 K001 K001 42.94(5) . 1_655 ?
O003 K001 K001 85.30(5) 3_545 1_455 ?
O003 K001 K001 138.15(5) 1_455 1_655 ?
O003 K001 K001 41.85(5) 1_455 1_455 ?
O003 K001 K001 137.06(5) . 1_455 ?
O003 K001 O002 79.13(5) 1_455 3_545 ?
O003 K001 O002 166.38(5) . 1_445 ?
O003 K001 O002 86.37(6) . 3_545 ?
O003 K001 O003 108.87(4) 1_455 3_545 ?
O003 K001 O003 116.91(4) . 3_545 ?
O003 K001 O003 95.21(5) . 1_455 ?
O003 K001 O004 92.52(5) 1_455 1_445 ?
O003 K001 O004 111.70(5) . 1_445 ?
O003 K001 O004 123.85(5) 3_545 1_445 ?
O003 K001 C005 18.09(6) 1_455 1_455 ?
O003 K001 C005 97.14(6) 1_455 1_445 ?
O003 K001 C005 152.59(5) . 1_445 ?
O003 K001 C005 23.38(6) 3_545 3_545 ?
O003 K001 C005 77.32(6) . 1_455 ?
O003 K001 C005 91.31(6) 1_455 3_545 ?
O003 K001 C005 81.83(5) 3_545 1_445 ?
O003 K001 C005 119.51(5) 3_545 1_455 ?
O003 K001 C005 104.83(6) . 3_545 ?
O004 K001 K001 77.43(4) 1_445 1_455 ?
O004 K001 K001 102.57(4) 1_445 1_655 ?
O004 K001 C005 96.63(5) 1_445 1_455 ?
O004 K001 C005 142.73(6) 1_445 3_545 ?
O004 K001 C005 43.48(5) 1_445 1_445 ?
C005 K001 K001 81.03(4) 3_545 1_455 ?
C005 K001 K001 120.65(4) 1_445 1_655 ?
C005 K001 K001 120.21(4) 1_455 1_655 ?
C005 K001 K001 98.97(4) 3_545 1_655 ?
C005 K001 K001 59.79(4) 1_455 1_455 ?
C005 K001 K001 59.35(4) 1_445 1_455 ?
C005 K001 C005 99.27(6) 3_545 1_445 ?
C005 K001 C005 112.15(5) 1_445 1_455 ?
C005 K001 C005 98.31(6) 3_545 1_455 ?
K001 O002 K001 95.29(5) 1_565 1_665 ?
K001 O002 K001 97.03(6) 1_565 3 ?
K001 O002 K001 104.27(6) 1_665 3 ?
C005 O002 K001 140.44(17) . 1_565 ?
C005 O002 K001 117.36(17) . 1_665 ?
C005 O002 K001 95.84(13) . 3 ?
K001 O003 K001 93.31(6) . 3 ?
K001 O003 K001 95.21(5) . 1_655 ?
K001 O003 K001 100.16(6) 1_655 3 ?
C005 O003 K001 119.91(18) . 1_655 ?
C005 O003 K001 143.98(18) . . ?
C005 O003 K001 88.37(13) . 3 ?
C006 O004 K001 104.33(13) . 1_665 ?
C008 O004 K001 136.51(17) . 1_665 ?
C008 O004 C006 106.3(2) . . ?
K001 C005 K001 81.57(5) 3 1_665 ?
K001 C005 K001 80.85(5) 3 1_655 ?
K001 C005 K001 112.14(5) 1_665 1_655 ?
O002 C005 K001 135.25(15) . 1_655 ?
O002 C005 K001 43.96(14) . 1_665 ?
O002 C005 K001 61.06(11) . 3 ?
O002 C005 O003 126.61(19) . . ?
O002 C005 C006 117.8(2) . . ?
O003 C005 K001 141.68(15) . 1_665 ?
O003 C005 K001 42.00(14) . 1_655 ?
O003 C005 K001 68.25(11) . 3 ?
O003 C005 C006 115.5(2) . . ?
C006 C005 K001 86.31(15) . 1_665 ?
C006 C005 K001 90.58(15) . 1_655 ?
C006 C005 K001 161.20(13) . 3 ?
O004 C006 C005 117.5(2) . . ?
C009 C006 O004 109.8(2) . . ?
C009 C006 C005 132.7(3) . . ?
C008 C007 H007 126.9 . . ?
C008 C007 C009 106.2(2) . . ?
C009 C007 H007 126.9 . . ?
O004 C008 H008 124.6 . . ?
C007 C008 O004 110.7(2) . . ?
C007 C008 H008 124.6 . . ?
C006 C009 C007 107.0(2) . . ?
C006 C009 H009 126.5 . . ?
C007 C009 H009 126.5 . . ?
loop_
_geom_bond_atom_site_label_1
_geom_bond_atom_site_label_2
_geom_bond_distance
_geom_bond_site_symmetry_2
_geom_bond_publ_flag
K001 K001 3.9649(2) 1_455 ?
K001 K001 3.9649(2) 1_655 ?
K001 O002 2.655(2) 1_545 ?
K001 O002 2.7881(17) 3_545 ?
K001 O002 2.710(2) 1_445 ?
K001 O003 2.656(2) . ?
K001 O003 2.712(2) 1_455 ?
K001 O003 2.9449(18) 3_545 ?
K001 O004 3.0937(19) 1_445 ?
K001 C005 3.467(3) 1_445 ?
K001 C005 3.513(3) 1_455 ?
K001 C005 3.169(2) 3_545 ?
O002 C005 1.250(3) . ?
O003 C005 1.258(3) . ?
O004 C006 1.378(3) . ?
O004 C008 1.365(3) . ?
C005 C006 1.492(3) . ?
C006 C009 1.347(4) . ?
C007 H007 0.9300 . ?
C007 C008 1.347(4) . ?
C007 C009 1.427(4) . ?
C008 H008 0.9300 . ?
C009 H009 0.9300 . ?
loop_
_twin_individual_id
_twin_individual_mass_fraction_refined
1 0.54(8)
2 0.46(8)
