#------------------------------------------------------------------------------
#$Date: 2022-12-13 10:14:39 +0200 (Tue, 13 Dec 2022) $
#$Revision: 279857 $
#$URL: file:///home/coder/svn-repositories/cod/cif/8/10/63/8106382.cif $
#------------------------------------------------------------------------------
#
# This file is available in the Crystallography Open Database (COD),
# http://www.crystallography.net/
#
# All data on this site have been placed in the public domain by the
# contributors.
#
data_8106382
loop_
_publ_author_name
'Zeng, Huahui'
'Shen, Qianjin'
'Wu, Xiangxiang'
_publ_section_title
;
 Crystal structure of guanidinium tetrapropylammonium
 bis(hydrogencarbonate) dihydrate, C15H40N4O8
;
_journal_issue                   6
_journal_name_full
'Zeitschrift f\"ur Kristallographie - New Crystal Structures'
_journal_page_first              1015
_journal_page_last               1017
_journal_paper_doi               10.1515/ncrs-2018-0142
_journal_volume                  233
_journal_year                    2018
_chemical_formula_moiety         '0.5(C16 H12 Br2 F2 O4 S2)'
_chemical_formula_sum            'C8 H6 Br F O2 S'
_chemical_formula_weight         265.10
_space_group_crystal_system      monoclinic
_space_group_IT_number           11
_space_group_name_Hall           '-P 2yb'
_space_group_name_H-M_alt        'P 1 21/m 1'
_atom_sites_solution_hydrogens   geom
_cell_angle_alpha                90
_cell_angle_beta                 103.1370(10)
_cell_angle_gamma                90
_cell_formula_units_Z            2
_cell_length_a                   4.7846(2)
_cell_length_b                   9.6099(4)
_cell_length_c                   10.3260(4)
_cell_measurement_reflns_used    5240
_cell_measurement_temperature    100(2)
_cell_measurement_theta_max      28.30
_cell_measurement_theta_min      2.93
_cell_volume                     462.36(3)
_computing_cell_refinement       'SAINT-plus (Bruker, 2008 [8])'
_computing_data_collection       'APEX2 (Bruker, 2008 [7])'
_computing_data_reduction        'SAINT-Plus and XPREP (Bruker,2008 [9])'
_computing_molecular_graphics    'ORTEP-3 [12]'
_computing_publication_material  'Olex2 (Dolomanov et al., 2009)[11]'
_computing_structure_refinement  'SHELXL-2016/4 (Sheldrick, 2016)[10]'
_computing_structure_solution    'SHELXL-2016/4 (Sheldrick, 2016 [10])'
_diffrn_ambient_temperature      100.15
_diffrn_detector_area_resol_mean 7.9
_diffrn_detector_type            'CCD area detector'
_diffrn_measured_fraction_theta_full 0.997
_diffrn_measured_fraction_theta_max 0.992
_diffrn_measurement_device       'three-circle diffractometer'
_diffrn_measurement_device_type  'Bruker APEX-II CCD'
_diffrn_measurement_method       '\f and \w scans'
_diffrn_radiation_monochromator  graphite
_diffrn_radiation_type           MoK\a
_diffrn_radiation_wavelength     0.71073
_diffrn_reflns_av_R_equivalents  0.0349
_diffrn_reflns_av_unetI/netI     0.0229
_diffrn_reflns_Laue_measured_fraction_full 0.997
_diffrn_reflns_Laue_measured_fraction_max 0.992
_diffrn_reflns_limit_h_max       4
_diffrn_reflns_limit_h_min       -6
_diffrn_reflns_limit_k_max       12
_diffrn_reflns_limit_k_min       -11
_diffrn_reflns_limit_l_max       13
_diffrn_reflns_limit_l_min       -13
_diffrn_reflns_number            6634
_diffrn_reflns_point_group_measured_fraction_full 0.997
_diffrn_reflns_point_group_measured_fraction_max 0.992
_diffrn_reflns_theta_full        25.242
_diffrn_reflns_theta_max         27.295
_diffrn_reflns_theta_min         2.025
_diffrn_standards_number         0
_exptl_absorpt_coefficient_mu    4.648
_exptl_absorpt_correction_T_max  0.522
_exptl_absorpt_correction_T_min  0.392
_exptl_absorpt_correction_type   multi-scan
_exptl_absorpt_process_details   'SADABS (Bruker, 2012)'
_exptl_crystal_colour            colourless
_exptl_crystal_colour_primary    colourless
_exptl_crystal_density_diffrn    1.904
_exptl_crystal_density_meas      .
_exptl_crystal_description       rod
_exptl_crystal_F_000             260
_exptl_crystal_size_max          0.210
_exptl_crystal_size_mid          0.180
_exptl_crystal_size_min          0.140
_refine_diff_density_max         0.223
_refine_diff_density_min         -0.277
_refine_diff_density_rms         0.053
_refine_ls_extinction_coef       0.0094(17)
_refine_ls_extinction_expression Fc^*^=kFc[1+0.001xFc^2^\l^3^/sin(2\q)]^-1/4^
_refine_ls_extinction_method     'SHELXL-2016/6 (Sheldrick 2016)'
_refine_ls_goodness_of_fit_ref   1.087
_refine_ls_hydrogen_treatment    constr
_refine_ls_matrix_type           full
_refine_ls_number_parameters     104
_refine_ls_number_reflns         1090
_refine_ls_number_restraints     142
_refine_ls_restrained_S_all      1.057
_refine_ls_R_factor_all          0.0215
_refine_ls_R_factor_gt           0.0193
_refine_ls_shift/su_max          0.000
_refine_ls_shift/su_mean         0.000
_refine_ls_structure_factor_coef Fsqd
_refine_ls_weighting_details
'w=1/[\s^2^(Fo^2^)+(0.0246P)^2^+0.1282P] where P=(Fo^2^+2Fc^2^)/3'
_refine_ls_weighting_scheme      calc
_refine_ls_wR_factor_gt          0.0494
_refine_ls_wR_factor_ref         0.0502
_reflns_Friedel_coverage         0.000
_reflns_Friedel_fraction_full    .
_reflns_Friedel_fraction_max     .
_reflns_number_gt                1012
_reflns_number_total             1090
_reflns_threshold_expression     'I > 2\s(I)'
_cod_data_source_file            suppl_ncrs-2018-0142_suppl.cif
_cod_data_source_block           17zs
_cod_database_code               8106382
_shelx_space_group_comment
;
The symmetry employed for this shelxl refinement is uniquely defined
by the following loop, which should always be used as a source of
symmetry information in preference to the above space-group names.
They are only intended as comments.
;
_shelx_estimated_absorpt_t_max   0.562
_shelx_estimated_absorpt_t_min   0.442
_olex2_refinement_description
;
1. Fixed Uiso
 At 1.2 times of:
  All C(H) groups
2. Restrained distances
 C3-C4 \\sim C4-C5 \\sim C5-C6 \\sim C6-C7 \\sim C7-C8 \\sim C8-C3
 with sigma of 0.02
 C3-C7 \\sim C3-C7 \\sim C6-C4 \\sim C6-C8 \\sim C8-C4 \\sim C7-C5
 with sigma of 0.04
3. Restrained planarity
 C3, C4, C5, C6, C7, C8
 with sigma of 0.1
4. Uiso/Uaniso restraints and constraints
C3 \\sim C4 \\sim C5 \\sim C6 \\sim C7 \\sim C8: within 2A with sigma of 0.04
and sigma for terminal atoms of 0.08
Uanis(C7) = Uanis(C3)
Uanis(C4) = Uanis(C6)
5. Rigid body (RIGU) restrains
 All non-hydrogen atoms
 with sigma for 1-2 distances of 0.004 and sigma for 1-3 distances of 0.004
6. Others
 Fixed Sof: Br1(0.5) C2(0.5) H2(0.5) C1(0.5) H1(0.5) F1(0.5) C3(0.5) H3(0.5)
 C4(0.5) H4(0.5) C5(0.5) C6(0.5) H6(0.5) C7(0.5) H7(0.5) C8(0.5) O1(0.5) O2(0.5)
7.a Aromatic/amide H refined with riding coordinates:
 C2(H2), C1(H1), C3(H3), C4(H4), C6(H6), C7(H7)
;
_shelx_res_file
;
TITL 17zs_ggkm_mf1_0ma in P-1 New: P21/m
    17zs_ggkm_mf1_0ma.res
    created by SHELXL-2016/6 at 13:30:00 on 12-Apr-2018
CELL 0.71073 4.7846 9.6099 10.326 90 103.137 90
ZERR 2 0.0002 0.0004 0.0004 0 0.001 0
LATT 1
SYMM -X,0.5+Y,-Z
SFAC C H Br F O S
UNIT 16 12 2 2 4 2
SADI C3 C4 C4 C5 C5 C6 C6 C7 C7 C8 C8 C3
SADI 0.04 C3 C7 C3 C7 C6 C4 C6 C8 C8 C4 C7 C5
FLAT C3 C4 C5 C6 C7 C8
SIMU C3 C4 C5 C6 C7 C8
RIGU
EADP C7 C3
EADP C4 C6

L.S. 20
PLAN  20
SIZE 0.14 0.18 0.21
TEMP -173
BOND $H
CONF
LIST 4
fmap 2
acta
MERG 2
REM <olex2.extras>
REM <HklSrc "%.\\17zs_ggkm_mf1_0ma.hkl"
REM </olex2.extras>

WGHT    0.024600    0.128200
EXTI    0.009394
FVAR       0.25523
PART -1
BR1   3   -0.421760    0.733147    0.541628    10.50000    0.02204    0.05719 =
         0.01780   -0.00234    0.00827   -0.00392
PART 0
S1    6    0.473581    0.750000   -0.101670    10.50000    0.01711    0.03760 =
         0.01774    0.00000    0.00692    0.00000
PART -1
C2    1    0.223542    0.795382    0.095677    10.50000    0.01557    0.01491 =
         0.02087    0.00156    0.00406    0.00034
AFIX  43
H2    2    0.278273    0.887670    0.079591    10.50000   -1.20000
AFIX   0
C1    1    0.295944    0.696843    0.020887    10.50000    0.01915    0.01611 =
         0.01957    0.00148    0.00688   -0.00147
AFIX  43
H1    2    0.253999    0.601698    0.032759    10.50000   -1.20000
AFIX   0
F1    4    0.220104    0.729240   -0.227877    10.50000    0.02407    0.05382 =
         0.01868   -0.00250    0.00225    0.00061
C3    1   -0.158643    0.628921    0.343284    10.50000    0.02177    0.03127 =
         0.02551   -0.00439    0.00265   -0.00145
AFIX  43
H3    2   -0.210634    0.539859    0.370115    10.50000   -1.20000
AFIX   0
C4    1   -0.003299    0.646824    0.242796    10.50000    0.02109    0.01168 =
         0.02371   -0.00259    0.00515    0.00176
AFIX  43
H4    2    0.055192    0.566597    0.202126    10.50000   -1.20000
AFIX   0
C5    1    0.066522    0.777106    0.201613    10.50000    0.01485    0.00688 =
         0.01964   -0.00112    0.00359    0.00022
C6    1   -0.016413    0.895148    0.260030    10.50000    0.02109    0.01168 =
         0.02371   -0.00259    0.00515    0.00176
AFIX  43
H6    2    0.026229    0.985187    0.231774    10.50000   -1.20000
AFIX   0
C7    1   -0.160758    0.879651    0.359093    10.50000    0.02177    0.03127 =
         0.02551   -0.00439    0.00265   -0.00145
AFIX  43
H7    2   -0.214248    0.960618    0.400403    10.50000   -1.20000
AFIX   0
C8    1   -0.230287    0.753853    0.400531    10.50000    0.01354    0.03709 =
         0.01721   -0.01108    0.00385    0.00484
PART 0
PART 1
O1    5    0.657715    0.874976   -0.119337    10.50000    0.02844    0.01914 =
         0.02958    0.00227    0.01772   -0.00361
PART 0
PART 2
O2    5    0.571994    0.874783   -0.094526    10.50000    0.03608    0.01743 =
         0.03344    0.00258    0.02165   -0.00429
HKLF 4




REM  17zs_ggkm_mf1_0ma in P-1 New: P21/m
REM R1 =  0.0193 for    1012 Fo > 4sig(Fo)  and  0.0215 for all    1090 data
REM    104 parameters refined using    142 restraints

END

WGHT      0.0246      0.1282

REM Highest difference peak  0.223,  deepest hole -0.277,  1-sigma level  0.053
Q1    1  -0.3145  0.6784  0.6201  11.00000  0.05    0.22
Q2    1  -0.1737  0.8159  0.3810  11.00000  0.05    0.22
Q3    1  -0.2724  0.6709  0.3430  11.00000  0.05    0.19
Q4    1  -0.6376  0.7500  0.5139  10.50000  0.05    0.19
Q5    1  -0.5495  0.6796  0.4609  11.00000  0.05    0.19
Q6    1  -0.5721  0.6366  0.4404  11.00000  0.05    0.18
Q7    1  -0.1743  0.8754  0.2635  11.00000  0.05    0.18
Q8    1  -0.0005  0.9490  0.2713  11.00000  0.05    0.17
Q9    1  -0.6602  0.7500  0.3790  10.50000  0.05    0.16
Q10   1   0.7599  0.8630 -0.0776  11.00000  0.05    0.15
Q11   1  -0.2416  0.7500  0.4491  10.50000  0.05    0.15
Q12   1   0.0625  0.6271 -0.3254  11.00000  0.05    0.15
Q13   1   0.1766  0.7500  0.0250  10.50000  0.05    0.14
Q14   1  -0.2217  0.7500  0.5583  10.50000  0.05    0.14
Q15   1   0.2110  0.7500  0.1816  10.50000  0.05    0.14
Q16   1   0.4626  0.9829 -0.0926  11.00000  0.05    0.14
Q17   1   0.6091  0.8128 -0.1030  11.00000  0.05    0.14
Q18   1   0.4648  0.8820 -0.1108  11.00000  0.05    0.14
Q19   1   0.1727  0.6428 -0.2151  11.00000  0.05    0.13
Q20   1   0.5359  0.8900 -0.1386  11.00000  0.05    0.13
;
_shelx_res_checksum              65011
_shelx_hkl_file
;
   1   0   0  205.34    8.45
  -1   0   0  200.41    8.45
  -2   0   0   58.01    2.37
  -2   0   0   55.52    2.38
  -3   0   0   15.97    0.70
  -3   0   0   16.14    0.72
  -3   0   0   15.54    0.85
  -4   0   0    3.49    0.31
  -4   0   0    3.51    0.23
  -4   0   0    3.34    0.30
  -5   0   0   20.66    1.02
  -5   0   0   22.04    1.18
  -5   1   0    0.13    0.23
  -4   1   0   37.90    1.56
  -4   1   0   35.71    1.58
  -4   1   0   35.76    1.91
  -3   1   0  113.53    4.57
  -3   1   0  107.94    4.57
  -3   1   0  106.56    5.58
  -2   1   0  116.89    5.00
  -2   1   0  123.34    5.00
   1  -1   0   27.26    1.15
   0   1   0   -0.82    0.03
   0   1   0   -0.84    0.04
   0  -1   0   -0.89    0.03
   1   1   0   24.64    1.09
   1   1   0   26.60    1.16
   1   1   0   24.65    1.17
  -1  -1   0   27.36    1.08
  -1  -1   0   25.35    1.16
  -1  -1   0   25.24    1.31
  -1  -1   0   26.20    1.17
   2   1   0  116.49    4.56
  -2  -1   0  111.54    4.93
  -2  -1   0  113.59    5.56
  -2  -1   0  107.18    4.94
  -2  -1   0   98.32    4.57
  -3  -1   0   91.25    4.32
  -3  -1   0  105.93    4.63
  -3  -1   0  104.23    4.65
  -3  -1   0  107.02    5.24
  -3  -1   0  105.62    4.29
  -4  -1   0   35.91    1.84
  -4  -1   0   36.76    1.51
  -4  -1   0   35.65    1.61
  -4  -1   0   34.49    1.62
  -4  -1   0   33.40    1.55
  -5  -1   0    0.41    0.13
  -5   2   0    8.85    0.63
  -4   2   0    3.59    0.33
  -4   2   0    3.12    0.24
  -4   2   0    3.38    0.25
  -3   2   0   24.28    1.32
  -3   2   0   25.43    1.08
  -3   2   0   25.29    1.08
  -2   2   0   34.39    1.45
   2  -2   0   34.07    1.45
  -1   2   0  253.12   11.76
  -1   2   0  260.84   11.75
  -1   2   0  265.28   10.87
   1  -2   0  263.63   10.85
   0   2   0  928.28   37.89
   0   2   0  900.65   43.75
   0   2   0 1000.00   40.88
   0   2   0  915.23   40.78
   0  -2   0  827.82   43.78
   0  -2   0  831.13   41.00
   0  -2   0  892.42   37.95
   1   2   0  257.07   10.75
  -1  -2   0  264.82   10.75
  -1  -2   0  254.76   11.66
  -1  -2   0  255.65   11.64
   2   2   0   25.88    1.32
  -2  -2   0   31.84    1.30
  -2  -2   0   31.96    1.40
  -2  -2   0   33.06    1.57
  -2  -2   0   31.19    1.40
   3   2   0   24.93    1.06
  -3  -2   0   23.43    1.13
  -3  -2   0   25.53    1.06
  -3  -2   0   24.36    1.13
  -3  -2   0   24.71    1.27
  -4  -2   0    3.21    0.22
  -4  -2   0    3.12    0.22
  -4  -2   0    3.25    0.25
  -5  -2   0    7.87    0.43
  -5   3   0    1.72    0.18
  -5   3   0    1.61    0.33
  -4   3   0   14.28    0.66
  -4   3   0   13.85    0.83
  -3   3   0   26.81    1.25
  -3   3   0   27.54    1.19
  -3   3   0   27.42    1.47
   3  -3   0   28.68    1.19
  -2   3   0   58.86    2.68
  -2   3   0   58.37    2.49
  -2   3   0   59.69    2.68
   2  -3   0   60.19    2.49
  -1   3   0   15.08    0.66
  -1   3   0   14.82    0.70
  -1   3   0   14.91    0.70
   1  -3   0   16.06    0.71
   1  -3   0   15.16    0.66
   0   3   0   -0.11    0.06
   0   3   0   -0.10    0.05
   0   3   0   -0.14    0.05
   0   3   0   -0.10    0.05
   0  -3   0   -0.14    0.04
   0  -3   0   -0.10    0.05
   0  -3   0   -0.05    0.08
   1   3   0   15.69    0.65
   1   3   0   15.12    0.75
   1   3   0   14.72    0.71
   1   3   0   15.14    0.74
  -1  -3   0   15.41    0.76
  -1  -3   0   15.41    0.71
  -1  -3   0   15.05    0.65
  -1  -3   0   14.94    0.71
   2   3   0   59.28    2.65
   2   3   0   59.30    2.46
  -2  -3   0   56.58    2.65
  -2  -3   0   58.82    2.66
  -2  -3   0   58.86    2.45
   3   3   0   27.03    1.15
  -3  -3   0   26.83    1.35
  -3  -3   0   26.24    1.21
  -3  -3   0   25.91    1.12
  -3  -3   0   25.67    1.21
   4   3   0   13.75    0.61
  -4  -3   0   13.04    0.65
  -5  -3   0    1.29    0.18
  -5   4   0    1.49    0.34
  -5   4   0    1.30    0.17
  -4   4   0    3.53    0.39
  -4   4   0    3.70    0.24
  -4   4   0    3.89    0.30
  -3   4   0   27.62    1.16
  -3   4   0   26.65    1.22
  -3   4   0   24.58    1.22
  -3   4   0   27.16    1.43
   3  -4   0   26.98    1.16
  -2   4   0   18.84    0.88
  -2   4   0   18.87    0.88
  -2   4   0   19.06    0.83
   2  -4   0   18.89    0.83
  -1   4   0  139.26    5.85
  -1   4   0  141.74    6.34
  -1   4   0  138.87    6.79
  -1   4   0  138.79    6.34
   1  -4   0  135.93    5.85
   1  -4   0  143.55    6.34
   1  -4   0  145.47    6.34
   0   4   0  102.93    4.95
   0   4   0  101.84    4.27
   0   4   0  105.74    4.62
   0   4   0  103.78    4.62
   0  -4   0   99.88    4.27
   0  -4   0  102.14    4.62
   0  -4   0   99.18    4.97
   1   4   0  142.99    7.08
   1   4   0  141.29    5.82
   1   4   0  140.86    7.08
   1   4   0  142.72    6.76
   1   4   0  138.80    6.30
  -1  -4   0  129.65    5.81
  -1  -4   0  134.53    6.30
  -1  -4   0  140.65    6.30
  -1  -4   0  145.99    6.77
   2   4   0   19.14    0.88
   2   4   0   18.41    0.82
  -2  -4   0   18.49    0.89
  -2  -4   0   18.87    0.96
  -2  -4   0   18.91    0.89
  -2  -4   0   19.90    0.82
   3   4   0   21.53    1.08
  -3  -4   0   25.65    1.04
  -3  -4   0   25.55    1.14
  -4  -4   0    3.43    0.25
  -5  -4   0    0.98    0.19
  -5   5   0    1.70    0.21
  -5   5   0    1.35    0.37
  -4   5   0    5.81    0.34
  -4   5   0    5.68    0.49
  -3   5   0    7.09    0.38
  -3   5   0    6.82    0.37
  -3   5   0    7.03    0.48
  -2   5   0   21.51    0.95
  -2   5   0   21.44    1.01
  -2   5   0   21.88    1.00
   2  -5   0   21.50    0.95
  -1   5   0    1.21    0.15
  -1   5   0    1.29    0.13
  -1   5   0    1.27    0.13
  -1   5   0    1.38    0.15
   1  -5   0    1.40    0.13
   1  -5   0    1.54    0.14
   1  -5   0    1.16    0.14
   0   5   0    0.05    0.08
   0   5   0    0.08    0.10
   0   5   0   -0.01    0.08
   0  -5   0    0.02    0.13
   0  -5   0    0.04    0.08
   0  -5   0   -0.02    0.08
   1   5   0    1.40    0.13
   1   5   0    1.32    0.15
   1   5   0    1.29    0.12
   1   5   0    1.25    0.13
  -1  -5   0    1.17    0.12
  -1  -5   0    1.38    0.16
  -1  -5   0    1.52    0.18
   2   5   0   21.60    1.01
   2   5   0   21.23    0.94
  -2  -5   0   21.87    1.02
  -2  -5   0   22.38    0.94
  -2  -5   0   21.17    1.02
  -2  -5   0   22.29    1.10
   3   5   0    6.82    0.38
  -3  -5   0    6.85    0.42
  -3  -5   0    6.31    0.37
  -3  -5   0    6.62    0.34
  -4  -5   0    5.02    0.33
  -4  -5   0    5.90    0.42
  -5  -5   0    1.19    0.22
  -5   6   0    1.97    0.25
  -5   6   0    1.95    0.40
  -4   6   0    1.20    0.19
  -4   6   0    1.18    0.30
  -3   6   0   12.61    0.63
  -3   6   0   12.44    0.76
  -3   6   0   12.94    0.61
  -2   6   0   23.62    1.30
  -2   6   0   24.24    1.06
  -2   6   0   23.49    1.13
  -2   6   0   24.98    1.19
  -1   6   0   56.95    2.42
  -1   6   0   57.30    2.61
  -1   6   0   57.75    2.61
  -1   6   0   57.95    2.79
   1  -6   0   56.27    2.42
   0   6   0  136.07    5.96
   0   6   0  136.51    6.38
   0   6   0  131.79    6.70
   0   6   0  132.35    5.50
   0  -6   0  132.51    5.50
   0  -6   0  118.88    6.41
   0  -6   0  133.44    5.95
   1   6   0   60.04    2.70
   1   6   0   59.51    2.88
   1   6   0   59.07    2.50
   1   6   0   59.25    3.02
  -1  -6   0   63.67    2.91
  -1  -6   0   55.84    2.49
  -1  -6   0   57.63    2.70
   2   6   0   23.47    1.04
  -2  -6   0   24.30    1.14
  -2  -6   0   24.12    1.04
  -2  -6   0   24.77    1.22
   3   6   0   12.01    0.59
  -3  -6   0   12.28    0.67
  -3  -6   0   12.07    0.62
  -3  -6   0   12.61    0.56
  -4  -6   0    1.12    0.20
  -4  -6   0    1.60    0.24
  -5  -6   0    1.31    0.23
  -4   7   0    2.87    0.39
  -4   7   0    3.05    0.30
  -3   7   0    5.25    0.34
  -3   7   0    5.13    0.45
  -2   7   0    8.68    0.47
  -2   7   0    8.67    0.54
  -2   7   0    8.70    0.47
  -2   7   0    8.74    0.45
  -1   7   0   15.74    0.78
  -1   7   0   16.08    0.82
  -1   7   0   16.10    0.88
   0   7   0    0.08    0.13
   0   7   0   -0.06    0.11
   0   7   0   -0.09    0.14
   0   7   0   -0.04    0.12
   0  -7   0    0.02    0.11
   0  -7   0    0.03    0.10
   0  -7   0    0.14    0.18
   1   7   0   16.97    0.84
   1   7   0   16.61    0.81
   1   7   0   16.15    0.74
   1   7   0   16.26    0.87
  -1  -7   0   15.99    0.74
  -1  -7   0   17.52    0.88
  -1  -7   0   16.31    0.80
   2   7   0    8.52    0.43
  -2  -7   0    8.69    0.43
  -2  -7   0    8.97    0.48
  -2  -7   0    9.19    0.53
   3   7   0    4.95    0.31
  -3  -7   0    5.18    0.35
  -3  -7   0    5.11    0.37
  -4  -7   0    2.72    0.29
  -4  -7   0    2.97    0.31
  -4   8   0    0.06    0.31
  -4   8   0    0.11    0.23
  -3   8   0    5.06    0.33
  -3   8   0    5.04    0.37
  -3   8   0    5.39    0.47
  -2   8   0   17.01    0.86
  -2   8   0   17.46    0.89
  -2   8   0   17.78    0.99
  -1   8   0   22.44    0.99
  -1   8   0   21.85    1.06
  -1   8   0   22.52    1.11
  -1   8   0   21.48    1.19
   0   8   0   94.60    4.32
   0   8   0   93.74    4.85
   0   8   0   95.49    3.99
   0   8   0   96.08    4.61
   0  -8   0   94.23    4.31
   1   8   0   22.76    1.02
   1   8   0   22.61    1.21
   1   8   0   22.48    1.10
   1   8   0   22.98    1.15
  -1  -8   0   22.51    1.10
  -1  -8   0   24.93    1.22
   2   8   0   17.64    0.82
  -2  -8   0   18.46    0.97
  -2  -8   0   18.25    0.89
  -3  -8   0    4.89    0.36
  -3  -8   0    5.43    0.41
  -4  -8   0    0.13    0.21
  -4  -8   0    0.51    0.25
  -4   9   0    0.68    0.33
  -4   9   0    0.42    0.26
  -3   9   0    0.26    0.23
  -3   9   0    0.09    0.18
  -3   9   0    0.44    0.29
  -2   9   0    1.53    0.23
  -2   9   0    1.80    0.28
  -2   9   0    1.55    0.21
  -1   9   0   10.96    0.58
  -1   9   0   10.32    0.57
  -1   9   0   10.55    0.64
   0   9   0   -0.16    0.16
   0   9   0   -0.06    0.16
   0   9   0   -0.09    0.18
   0  -9   0   -0.41    0.19
   1   9   0   11.34    0.60
   1   9   0   10.68    0.55
  -1  -9   0   10.77    0.59
  -1  -9   0   11.81    0.70
   2   9   0    1.67    0.18
  -2  -9   0    1.65    0.22
  -2  -9   0    1.93    0.28
  -3  -9   0    0.24    0.22
  -3  -9   0    0.30    0.25
  -4  -9   0    0.44    0.27
  -4  -9   0    0.33    0.24
  -3  10   0    2.24    0.30
  -3  10   0    2.42    0.38
  -3  10   0    2.73    0.32
  -2  10   0    5.80    0.48
  -2  10   0    5.75    0.40
  -2  10   0    5.82    0.43
  -1  10   0    6.03    0.41
  -1  10   0    6.39    0.42
  -1  10   0    6.00    0.45
   0  10   0    4.42    0.33
   0  10   0    4.29    0.36
   0  10   0    4.65    0.36
   1  10   0    6.53    0.41
  -1 -10   0    6.70    0.56
  -2 -10   0    6.03    0.43
  -2 -10   0    6.97    0.52
  -3 -10   0    2.63    0.35
  -3 -10   0    2.10    0.28
  -2  11   0    0.11    0.26
  -2  11   0    0.11    0.22
  -2  11   0   -0.17    0.26
  -1  11   0    0.09    0.22
  -1  11   0    0.04    0.22
  -1  11   0    0.12    0.23
   0  11   0    0.14    0.20
  -1 -11   0    0.38    0.33
  -2 -11   0    0.29    0.33
  -1  12   0    0.98    0.26
  -1  12   0    0.99    0.29
   0  12   0    1.61    0.27
   0  12   1    1.21    0.24
  -1  12   1    0.10    0.24
  -2 -11  -1    3.85    0.47
  -1 -11  -1    0.46    0.32
   0  11   1    1.44    0.23
  -1  11   1   -0.01    0.21
  -1  11   1    0.08    0.23
  -1  11   1    0.12    0.24
  -2  11   1    1.03    0.27
  -2  11   1    0.68    0.28
  -2  11   1    0.76    0.24
  -3 -10  -1    1.23    0.30
  -3 -10  -1    1.21    0.27
  -2 -10  -1    1.92    0.26
  -2 -10  -1    2.47    0.33
  -1 -10  -1    0.81    0.30
   1  10   1    0.66    0.17
   0  10   1    1.85    0.24
   0  10   1    1.80    0.23
  -1  10   1    0.47    0.21
  -1  10   1    0.53    0.19
  -1  10   1    0.51    0.22
  -2  10   1    2.24    0.32
  -2  10   1    2.37    0.27
  -2  10   1    2.52    0.28
  -3  10   1    0.07    0.26
  -3  10   1    0.06    0.24
  -3  10   1    0.14    0.21
  -4  -9  -1    6.28    0.47
  -3  -9  -1    7.04    0.44
  -3  -9  -1    6.47    0.48
  -2  -9  -1    2.03    0.29
  -2  -9  -1    2.48    0.28
  -1  -9  -1    8.33    0.50
  -1  -9  -1    9.06    0.58
   1   9   1    8.53    0.48
   0  -9  -1    2.85    0.37
   0   9   1    3.25    0.30
   0   9   1    3.18    0.30
   0   9   1    3.13    0.27
  -1   9   1    7.25    0.47
  -1   9   1    7.00    0.43
  -1   9   1    6.73    0.43
  -2   9   1    0.18    0.17
  -2   9   1    0.25    0.20
  -2   9   1    0.09    0.22
  -3   9   1    2.18    0.27
  -3   9   1    2.36    0.26
  -3   9   1    2.05    0.33
  -4   9   1    4.01    0.39
  -4   9   1    3.88    0.49
  -4  -8  -1    0.12    0.22
  -4  -8  -1    0.26    0.23
  -3  -8  -1    1.17    0.21
  -3  -8  -1    1.47    0.24
  -2  -8  -1   13.01    0.67
  -2  -8  -1   13.38    0.72
   2   8   1   12.51    0.61
  -1  -8  -1    0.24    0.15
  -1  -8  -1    0.19    0.21
   1   8   1    0.13    0.13
   1   8   1    0.31    0.13
   1   8   1    0.14    0.11
   0  -8  -1    1.87    0.28
   0  -8  -1    2.78    0.25
   0   8   1    2.50    0.24
   0   8   1    2.23    0.24
   0   8   1    2.68    0.28
   0   8   1    2.06    0.21
  -1   8   1    2.93    0.24
  -1   8   1    2.64    0.28
  -1   8   1    2.79    0.26
  -1   8   1    2.81    0.24
  -2   8   1    0.24    0.15
  -2   8   1    0.25    0.17
  -2   8   1    0.09    0.20
  -3   8   1    0.85    0.21
  -3   8   1    0.78    0.26
  -3   8   1    0.78    0.16
  -4   8   1    2.69    0.39
  -4   8   1    2.64    0.33
  -4  -7  -1   16.01    0.80
  -4  -7  -1   15.31    0.84
  -3  -7  -1   19.30    1.03
  -3  -7  -1   20.58    0.97
   3   7   1   19.85    0.91
  -2  -7  -1    9.34    0.53
  -2  -7  -1    8.55    0.45
  -2  -7  -1    9.56    0.49
   2   7   1    8.84    0.45
  -1  -7  -1   39.34    1.75
  -1  -7  -1   40.80    1.90
  -1  -7  -1   42.28    2.05
   1   7   1   40.95    1.76
   1   7   1   41.62    2.01
   1   7   1   41.84    2.11
   1   7   1   40.91    1.90
   0  -7  -1    7.50    0.39
   0  -7  -1    7.42    0.51
   0  -7  -1    7.81    0.42
   0   7   1    7.68    0.46
   0   7   1    7.93    0.44
   0   7   1    7.65    0.38
   0   7   1    7.79    0.43
   1  -7  -1    8.12    0.45
   1  -7  -1    8.53    0.45
  -1   7   1    8.43    0.51
  -1   7   1    8.72    0.46
  -1   7   1    8.13    0.42
  -1   7   1    8.24    0.45
  -2   7   1    0.49    0.13
  -2   7   1    0.71    0.20
  -2   7   1    0.55    0.16
  -2   7   1    0.63    0.14
  -3   7   1    6.41    0.36
  -3   7   1    5.88    0.45
  -3   7   1    6.11    0.38
  -4   7   1   11.48    0.77
  -4   7   1   11.94    0.62
  -5   7   1    3.89    0.38
  -5   7   1    3.85    0.52
  -5  -6  -1    4.10    0.36
  -4  -6  -1    1.74    0.23
  -4  -6  -1    1.56    0.21
  -3  -6  -1    7.59    0.39
  -3  -6  -1    7.56    0.43
  -3  -6  -1    7.69    0.45
   3   6   1    7.53    0.42
  -2  -6  -1    0.85    0.15
  -2  -6  -1    0.98    0.16
  -2  -6  -1    0.68    0.13
   2   6   1    0.66    0.12
  -1  -6  -1   14.00    0.72
  -1  -6  -1   13.17    0.66
  -1  -6  -1   13.36    0.62
   1   6   1   13.35    0.66
   1   6   1   13.95    0.69
   1   6   1   13.59    0.62
   1   6   1   14.05    0.72
   0  -6  -1   15.75    0.73
   0  -6  -1   16.74    0.89
   0  -6  -1   16.51    0.79
   0   6   1   16.98    0.80
   0   6   1   16.72    0.88
   0   6   1   16.63    0.83
   0   6   1   16.56    0.73
   1  -6  -1    2.43    0.20
   1  -6  -1    2.38    0.18
   1  -6  -1    2.26    0.19
  -1   6   1    2.30    0.23
  -1   6   1    2.40    0.22
  -1   6   1    2.29    0.19
  -1   6   1    2.23    0.19
   2  -6  -1    0.47    0.13
  -2   6   1    0.38    0.17
  -2   6   1    0.29    0.12
  -2   6   1    0.32    0.10
  -2   6   1    0.32    0.13
  -3   6   1    0.16    0.14
  -3   6   1   -0.11    0.20
  -3   6   1    0.13    0.14
  -4   6   1    6.52    0.52
  -4   6   1    6.39    0.39
  -5   6   1   12.97    0.88
  -5   6   1   13.34    0.69
  -5  -5  -1    8.38    0.48
  -4  -5  -1   36.95    1.71
  -3  -5  -1   73.16    3.01
  -3  -5  -1   73.89    3.26
  -3  -5  -1   70.64    3.50
   3   5   1   68.69    3.05
  -2  -5  -1   99.88    4.11
  -2  -5  -1   99.23    4.45
  -2  -5  -1   98.12    4.77
  -2  -5  -1   97.16    4.45
   2   5   1   94.57    4.11
   2   5   1  100.10    4.44
  -1  -5  -1   53.45    2.46
  -1  -5  -1   55.18    2.64
  -1  -5  -1   53.81    2.27
   1   5   1   55.51    2.75
   1   5   1   54.51    2.62
   1   5   1   52.96    2.46
   1   5   1   52.64    2.27
   0  -5  -1   25.91    1.21
   0  -5  -1   26.51    1.32
   0  -5  -1   25.68    1.12
   0   5   1   25.28    1.12
   0   5   1   26.54    1.29
   0   5   1   26.32    1.36
   0   5   1   26.84    1.21
   1  -5  -1   22.08    0.95
  -1   5   1   22.28    1.16
  -1   5   1   21.70    1.02
  -1   5   1   21.69    1.08
  -1   5   1   21.65    0.95
  -1   5   1   21.60    1.02
   2  -5  -1   29.29    1.25
  -2   5   1   28.69    1.34
  -2   5   1   29.84    1.42
  -2   5   1   29.24    1.25
  -2   5   1   28.69    1.34
  -2   5   1   28.78    1.53
   3  -5  -1   17.78    0.79
  -3   5   1   17.23    0.82
  -3   5   1   17.36    0.78
  -3   5   1   17.19    0.97
  -4   5   1   15.45    0.73
  -4   5   1   15.90    0.76
  -4   5   1   15.38    0.92
  -5   5   1   26.02    1.21
  -5   5   1   24.99    1.45
  -5  -4  -1    9.77    0.52
  -4  -4  -1    7.71    0.42
  -3  -4  -1   26.95    1.22
  -3  -4  -1   26.12    1.13
   3   4   1   25.69    1.18
  -2  -4  -1   20.30    0.92
  -2  -4  -1   19.47    0.85
  -2  -4  -1   19.61    0.92
  -2  -4  -1   19.55    0.98
   2   4   1   19.86    0.91
   2   4   1   18.96    0.86
  -1  -4  -1   99.61    4.65
  -1  -4  -1   92.80    4.33
  -1  -4  -1   96.96    4.00
  -1  -4  -1   98.08    4.33
   1   4   1   93.79    4.63
   1   4   1   96.44    4.00
   1   4   1   97.05    4.86
   1   4   1   92.07    4.33
   0  -4  -1   71.09    3.27
   0  -4  -1   69.53    3.02
   0  -4  -1   74.67    3.53
   0   4   1   73.62    3.68
   0   4   1   71.13    3.02
   0   4   1   71.61    3.50
   0   4   1   73.79    3.27
   1  -4  -1   53.70    2.30
  -1   4   1   54.19    2.49
  -1   4   1   54.48    2.30
  -1   4   1   56.38    2.81
  -1   4   1   53.52    2.66
  -1   4   1   56.56    2.49
   2  -4  -1    1.49    0.15
  -2   4   1    1.50    0.14
  -2   4   1    1.50    0.20
  -2   4   1    1.61    0.14
  -2   4   1    1.57    0.17
  -2   4   1    1.48    0.15
   3  -4  -1    0.24    0.11
  -3   4   1    0.21    0.10
  -3   4   1    0.24    0.11
  -3   4   1    0.23    0.17
  -3   4   1    0.19    0.11
  -4   4   1   14.96    0.70
  -4   4   1   14.99    0.87
  -4   4   1   15.45    0.72
  -5   4   1   24.99    1.17
  -5   4   1   24.61    1.40
  -5  -3  -1   13.17    0.65
  -4  -3  -1   60.37    2.85
   4   3   1   65.30    2.67
  -3  -3  -1  122.64    6.01
  -3  -3  -1  121.45    5.35
  -3  -3  -1  122.36    5.35
  -3  -3  -1  121.18    4.95
   3   3   1  104.03    4.97
  -2  -3  -1  191.51    8.22
  -2  -3  -1  202.27    8.91
  -2  -3  -1  198.44    8.91
   2   3   1  198.46    8.24
  -1  -3  -1  117.19    5.33
  -1  -3  -1  119.83    5.33
  -1  -3  -1  118.74    4.92
  -1  -3  -1  122.53    5.72
  -1  -3  -1  117.16    5.99
   1   3   1  115.00    5.99
   1   3   1  116.79    4.92
   0  -3  -1   80.88    3.37
   0  -3  -1   84.77    3.93
   0  -3  -1   79.65    3.65
   0  -3  -1   78.12    3.65
   0   3   1   79.56    3.65
   0   3   1   81.71    3.37
   0   3   1   80.86    3.91
   0   3   1   80.19    3.65
   0   3   1   80.94    4.11
   1  -3  -1   77.12    3.28
   1  -3  -1   80.97    3.56
  -1   3   1   78.30    3.55
  -1   3   1   77.48    3.55
  -1   3   1   79.01    3.28
  -1   3   1   76.79    3.80
  -1   3   1   79.16    4.00
   2  -3  -1   73.25    3.03
  -2   3   1   73.36    3.27
  -2   3   1   73.63    3.03
  -2   3   1   71.59    3.70
  -2   3   1   69.99    3.28
   3  -3  -1   32.94    1.32
  -3   3   1   31.75    1.63
  -3   3   1   26.14    1.42
  -3   3   1   31.67    1.41
  -3   3   1   31.86    1.32
  -4   3   1   24.93    1.26
  -4   3   1   27.96    1.19
  -4   3   1   27.18    1.47
  -4   3   1   28.02    1.19
  -4   3   1   28.25    1.25
  -5   3   1   43.02    2.05
  -5   3   1   46.94    2.39
  -5  -2  -1   22.49    1.05
  -4  -2  -1   12.21    0.59
  -4  -2  -1   11.94    0.62
   4   2   1   12.49    0.57
  -3  -2  -1   22.15    1.02
  -3  -2  -1   21.73    1.02
  -3  -2  -1   22.27    0.99
  -3  -2  -1   22.47    1.16
   3   2   1   22.82    0.98
  -2  -2  -1    3.49    0.20
  -2  -2  -1    3.74    0.21
  -2  -2  -1    3.56    0.19
  -2  -2  -1    3.65    0.20
   2   2   1    3.18    0.24
  -1  -2  -1   68.58    2.99
  -1  -2  -1   70.26    3.24
  -1  -2  -1   72.40    3.23
  -1  -2  -1   76.50    3.64
   1   2   1   70.37    3.64
   1   2   1   70.69    2.99
   1   2   1   72.97    3.23
   0  -2  -1   35.04    1.63
   0  -2  -1   37.40    1.76
   0  -2  -1   36.30    1.51
   0  -2  -1   34.97    1.63
   0  -2  -1   36.30    1.84
   0   2   1   34.94    1.63
   0   2   1   35.38    1.84
   0   2   1   37.49    1.51
   0   2   1   36.10    1.75
   0   2   1   35.52    1.63
   1  -2  -1   39.63    1.64
   1  -2  -1   36.81    1.78
  -1   2   1   39.52    1.78
  -1   2   1   39.17    2.01
  -1   2   1   40.11    1.64
  -1   2   1   38.59    1.79
   2  -2  -1   26.95    1.13
  -2   2   1   27.41    1.22
  -2   2   1   25.85    1.39
  -2   2   1   26.36    1.13
  -2   2   1   26.64    1.21
   3  -2  -1    5.31    0.27
  -3   2   1    5.29    0.26
  -3   2   1    5.09    0.26
  -3   2   1    5.02    0.35
  -3   2   1    5.25    0.27
  -4   2   1   30.91    1.34
  -4   2   1   31.42    1.41
  -4   2   1   31.61    1.33
  -4   2   1   30.00    1.41
  -4   2   1   31.05    1.65
  -5   2   1   35.06    1.78
  -5   2   1   31.05    1.51
  -5  -1  -1   25.88    1.20
  -4  -1  -1   64.47    3.21
  -4  -1  -1   64.45    2.82
  -4  -1  -1   57.70    2.82
  -4  -1  -1   62.26    2.64
  -4  -1  -1   63.30    2.69
  -3  -1  -1   99.97    4.23
   3   1   1  100.78    4.20
  -2  -1  -1   63.21    2.94
   2   1   1   76.06    2.93
  -1  -1  -1  724.57   30.83
  -1  -1  -1  777.85   37.55
  -1  -1  -1  744.79   33.44
  -1  -1  -1  734.89   33.48
   1   1   1  812.90   37.56
   1   1   1  648.12   30.84
   0  -1  -1    8.16    0.41
   0  -1  -1    7.79    0.37
   0  -1  -1    7.57    0.37
   0  -1  -1    8.14    0.35
   0  -1  -1    7.89    0.40
   0   1   1    7.70    0.40
   0   1   1    7.88    0.37
   0   1   1    7.86    0.37
   1  -1  -1    2.75    0.15
   1  -1  -1    2.86    0.15
   1  -1  -1    2.67    0.15
  -1   1   1    2.66    0.15
  -1   1   1    3.07    0.16
  -1   1   1    3.07    0.15
   2  -1  -1   34.89    1.43
  -2   1   1   33.57    1.53
  -2   1   1   34.47    1.43
  -2   1   1   32.91    1.53
  -2   1   1   34.08    1.75
  -3   1   1   22.70    1.25
  -3   1   1   24.45    1.02
  -3   1   1   23.97    1.02
  -4   1   1   71.77    3.73
  -4   1   1   73.10    3.05
  -4   1   1   70.73    3.27
  -4   1   1   73.73    3.04
  -4   1   1   73.05    3.27
  -5   1   1   27.93    1.37
  -5   1   1   30.97    1.59
  -6   1   1    6.29    0.46
  -4   0  -1    9.56    0.49
  -4   0  -1   11.16    0.61
  -4   0  -1    9.71    0.55
  -3   0  -1   11.84    0.56
  -3   0  -1   12.69    0.59
  -2   0  -1   14.57    0.65
   2   0   1   14.72    0.64
  -1   0  -1   22.61    0.97
  -1   0  -1   22.45    1.16
   1   0   1   23.14    0.96
   0   0  -1    7.94    0.35
   0   0  -1    6.87    0.37
   0   0  -1    7.12    0.35
   0   0   1    6.97    0.37
   0   0   1    7.08    0.37
   0   0   1    7.97    0.33
   0   0   1    7.47    0.35
   1   0  -1    1.30    0.08
   1   0  -1    1.27    0.07
   1   0  -1    1.38    0.07
  -1   0   1    1.23    0.07
  -1   0   1    1.32    0.08
  -1   0   1    1.10    0.08
  -1   0   1    1.21    0.10
  -2   0   1  103.90    4.31
  -2   0   1  101.69    4.66
  -2   0   1  104.45    4.66
  -2   0   1  106.89    4.30
  -2   0   1  100.82    5.26
  -3   0   1   34.47    1.81
  -3   0   1   35.85    1.48
  -3   0   1   35.06    1.59
  -3   0   1   33.43    1.59
  -3   0   1   36.47    1.49
  -4   0   1   46.87    2.15
  -4   0   1   49.39    2.17
  -4   0   1   44.27    2.03
  -4   0   1   50.45    2.00
  -4   0   1   45.46    2.45
  -5   0   1   37.96    1.81
  -5   0   1   30.19    1.61
  -6   0   1   19.82    0.97
  -5   1  -1   30.75    1.67
  -4   1  -1   67.33    3.33
  -4   1  -1   62.46    2.71
  -4   1  -1   62.99    2.74
  -3   1  -1  102.56    4.30
  -3   1  -1  103.09    4.31
  -2   1  -1   73.59    3.06
  -2   1  -1   72.47    3.06
  -1   1  -1  832.07   34.60
   0   1  -1    7.82    0.36
   0   1  -1    7.37    0.39
   0   1  -1    8.02    0.34
   0   1  -1    7.52    0.41
   0   1  -1    7.52    0.39
   0   1  -1    7.62    0.36
   0  -1   1    7.45    0.39
   0  -1   1    8.07    0.36
   0  -1   1    8.11    0.34
   0  -1   1    7.63    0.39
   1   1  -1    2.60    0.15
   1   1  -1    2.26    0.19
   1   1  -1    3.23    0.14
  -1  -1   1    2.85    0.17
  -1  -1   1    2.88    0.13
  -1  -1   1    2.90    0.17
  -1  -1   1    2.57    0.15
  -2  -1   1   33.73    1.43
  -2  -1   1   34.50    1.75
  -2  -1   1   34.07    1.55
  -3  -1   1   24.87    1.01
  -3  -1   1   22.90    1.03
  -3  -1   1   22.91    1.08
  -3  -1   1   23.92    1.23
  -4  -1   1   72.56    3.79
  -4  -1   1   74.91    3.13
  -4  -1   1   71.01    3.38
  -4  -1   1   72.46    3.35
  -4  -1   1   79.02    3.10
  -5  -1   1   28.19    1.32
  -6  -1   1    5.79    0.39
  -5   2  -1   25.96    1.45
  -4   2  -1   12.37    0.61
  -4   2  -1   12.89    0.76
  -3   2  -1   22.13    0.99
  -3   2  -1   23.10    0.99
  -2   2  -1    3.63    0.20
  -2   2  -1    3.83    0.21
  -1   2  -1   69.20    3.20
  -1   2  -1   71.49    3.20
  -1   2  -1   72.99    2.97
   1  -2   1   70.48    2.97
   0   2  -1   35.73    1.82
   0   2  -1   35.68    1.61
   0   2  -1   35.88    1.61
   0   2  -1   36.20    1.49
   0   2  -1   35.69    1.73
   0  -2   1   34.14    1.73
   0  -2   1   35.28    1.61
   0  -2   1   35.53    1.61
   0  -2   1   36.37    1.73
   0  -2   1   34.51    1.49
   1   2  -1   39.41    1.87
   1   2  -1   38.24    1.87
   1   2  -1   39.83    1.97
   1   2  -1   31.96    1.75
   1   2  -1   40.43    1.61
  -1  -2   1   39.21    1.75
  -1  -2   1   38.73    1.76
  -1  -2   1   37.19    1.61
  -1  -2   1   40.58    1.97
   2   2  -1   25.30    1.12
   2   2  -1   26.09    1.19
  -2  -2   1   26.87    1.21
  -2  -2   1   26.14    1.10
  -2  -2   1   26.55    1.35
  -2  -2   1   26.86    1.20
   3   2  -1    5.08    0.24
  -3  -2   1    4.90    0.28
  -3  -2   1    5.16    0.30
  -3  -2   1    5.29    0.25
  -3  -2   1    5.22    0.29
  -4  -2   1   33.78    1.36
  -4  -2   1   31.37    1.66
  -4  -2   1   31.03    1.48
  -5  -2   1   31.92    1.49
  -5   3  -1   16.31    0.99
  -4   3  -1   66.01    2.84
  -4   3  -1   67.77    3.48
  -3   3  -1  131.46    5.41
  -3   3  -1  127.12    5.41
  -2   3  -1  195.26    9.11
  -2   3  -1  203.82    9.11
  -2   3  -1  206.24    8.43
   2  -3   1  204.29    8.42
  -1   3  -1  121.75    5.48
  -1   3  -1  123.32    5.07
  -1   3  -1  121.58    5.48
   1  -3   1  124.15    5.48
   1  -3   1  117.28    5.07
   0   3  -1   81.11    3.30
   0   3  -1   80.50    3.57
   0   3  -1   79.66    3.57
   0   3  -1   80.71    3.83
   0  -3   1   80.03    3.30
   0  -3   1   73.81    3.84
   0  -3   1   77.69    3.57
   1   3  -1   78.87    3.72
   1   3  -1   77.18    3.48
   1   3  -1   78.41    3.91
   1   3  -1   79.22    3.20
  -1  -3   1   74.17    3.20
  -1  -3   1   75.85    3.48
  -1  -3   1   76.70    3.48
  -1  -3   1   74.39    3.74
   2   3  -1   73.92    2.99
   2   3  -1   72.09    3.24
  -2  -3   1   72.03    2.98
  -2  -3   1   70.96    3.24
  -2  -3   1   71.14    3.48
  -2  -3   1   69.56    3.24
   3   3  -1   34.95    1.39
  -3  -3   1   31.37    1.50
  -3  -3   1   32.53    1.37
  -3  -3   1   31.32    1.50
  -3  -3   1   32.75    1.67
  -4  -3   1   25.34    1.19
  -5  -3   1   38.68    1.79
  -5   4  -1   12.48    0.61
  -5   4  -1   12.47    0.83
  -4   4  -1    8.37    0.47
  -4   4  -1    8.43    0.42
  -4   4  -1    8.41    0.60
  -3   4  -1   28.19    1.21
  -3   4  -1   27.98    1.27
  -3   4  -1   26.58    1.27
   3  -4   1   27.97    1.21
  -2   4  -1   20.57    0.93
  -2   4  -1   20.41    0.93
  -2   4  -1   20.47    0.89
   2  -4   1   19.39    0.88
  -1   4  -1   96.34    4.04
  -1   4  -1   98.47    4.37
  -1   4  -1   97.15    4.37
  -1   4  -1   97.15    4.68
   1  -4   1   90.91    4.04
   1  -4   1  100.18    4.37
   0   4  -1   69.07    3.13
   0   4  -1   70.37    3.13
   0   4  -1   72.87    3.35
   0   4  -1   71.78    2.89
   0  -4   1   69.32    3.12
   0  -4   1   67.64    2.89
   0  -4   1   62.20    3.36
   1   4  -1   55.91    2.63
   1   4  -1   53.92    2.76
   1   4  -1   53.78    2.46
   1   4  -1   55.61    2.27
  -1  -4   1   53.11    2.46
  -1  -4   1   52.20    2.27
  -1  -4   1   55.01    2.65
   2   4  -1    1.63    0.15
   2   4  -1    1.45    0.11
  -2  -4   1    1.65    0.16
  -2  -4   1    1.53    0.16
  -2  -4   1    1.46    0.12
  -2  -4   1    1.70    0.22
   3   4  -1   -0.11    0.11
  -3  -4   1    0.35    0.12
  -3  -4   1    0.18    0.16
  -3  -4   1    0.32    0.08
  -4  -4   1   13.88    0.69
  -5  -4   1   21.69    1.04
  -5   5  -1    9.64    0.74
  -5   5  -1    9.99    0.53
  -4   5  -1   43.75    2.30
  -4   5  -1   42.39    1.97
  -3   5  -1   78.87    3.56
  -3   5  -1   78.29    3.32
  -2   5  -1  100.73    4.19
  -2   5  -1  100.98    4.52
  -2   5  -1  101.31    4.52
   2  -5   1   96.79    4.19
  -1   5  -1   53.68    2.27
  -1   5  -1   55.56    2.44
  -1   5  -1   52.45    2.61
  -1   5  -1   52.96    2.45
   1  -5   1   55.76    2.44
   1  -5   1   51.97    2.26
   0   5  -1   25.37    1.14
   0   5  -1   25.75    1.06
   0   5  -1   25.98    1.21
   0  -5   1   25.31    1.14
   0  -5   1   24.02    1.05
   0  -5   1   21.21    1.23
   1   5  -1   21.60    1.04
   1   5  -1   22.81    1.09
   1   5  -1   21.88    0.95
  -1  -5   1   21.08    0.95
  -1  -5   1   24.33    1.12
  -1  -5   1   21.42    1.03
   2   5  -1   28.19    1.21
  -2  -5   1   27.98    1.20
  -2  -5   1   28.21    1.32
  -2  -5   1   29.06    1.43
  -2  -5   1   28.38    1.32
   3   5  -1   16.99    0.78
  -3  -5   1   17.38    0.75
  -3  -5   1   18.48    0.92
  -3  -5   1   16.24    0.83
  -4  -5   1   13.05    0.63
  -4  -5   1   11.52    0.72
  -5  -5   1   20.89    1.02
  -5   6  -1    5.19    0.58
  -5   6  -1    4.98    0.38
  -4   6  -1    1.81    0.35
  -4   6  -1    1.94    0.24
  -3   6  -1    7.69    0.42
  -2   6  -1    0.82    0.10
  -2   6  -1    0.57    0.14
  -2   6  -1    0.70    0.15
  -1   6  -1   12.85    0.65
  -1   6  -1   13.54    0.64
  -1   6  -1   13.32    0.67
  -1   6  -1   12.49    0.60
   1  -6   1   13.92    0.64
   1  -6   1   12.84    0.60
   0   6  -1   15.79    0.79
   0   6  -1   17.21    0.84
   0   6  -1   16.37    0.74
   0  -6   1   17.09    0.74
   0  -6   1   16.73    0.79
   1   6  -1    2.34    0.17
   1   6  -1    2.32    0.19
   1   6  -1    2.35    0.22
  -1  -6   1    2.56    0.18
  -1  -6   1    2.38    0.19
  -1  -6   1    2.63    0.26
   2   6  -1    0.38    0.12
   2   6  -1    0.25    0.09
  -2  -6   1    0.47    0.13
  -2  -6   1    0.43    0.10
  -2  -6   1    0.85    0.17
   3   6  -1    0.24    0.12
  -3  -6   1    0.16    0.14
  -3  -6   1    0.32    0.20
  -4  -6   1    5.83    0.38
  -4  -6   1    6.61    0.46
  -5  -6   1   10.81    0.60
  -4   7  -1   18.29    0.90
  -4   7  -1   17.73    1.09
  -3   7  -1   21.96    1.06
  -3   7  -1   22.32    1.25
  -2   7  -1    9.37    0.49
  -2   7  -1    8.94    0.46
  -2   7  -1    9.04    0.49
  -1   7  -1   40.53    1.96
  -1   7  -1   39.86    1.71
  -1   7  -1   39.35    1.84
   0   7  -1    7.82    0.39
   0   7  -1    7.78    0.42
   0   7  -1    8.09    0.43
   0  -7   1    7.43    0.38
   0  -7   1    6.28    0.47
   0  -7   1    8.02    0.42
   1   7  -1    8.70    0.47
   1   7  -1    8.40    0.46
   1   7  -1    8.51    0.42
  -1  -7   1    8.62    0.42
  -1  -7   1    8.47    0.46
  -1  -7   1    9.34    0.53
   2   7  -1    0.47    0.11
  -2  -7   1    0.74    0.20
  -2  -7   1    0.60    0.12
  -2  -7   1    0.62    0.15
  -3  -7   1    6.25    0.39
  -3  -7   1    6.67    0.45
  -4  -7   1   10.58    0.58
  -4  -7   1   10.71    0.65
  -5  -7   1    4.20    0.43
  -5  -7   1    3.56    0.36
  -4   8  -1    0.13    0.23
  -4   8  -1    0.12    0.33
  -3   8  -1    1.40    0.31
  -3   8  -1    1.30    0.22
  -2   8  -1   12.93    0.68
  -2   8  -1   12.82    0.66
  -1   8  -1    0.18    0.14
  -1   8  -1    0.13    0.15
  -1   8  -1    0.37    0.17
   0   8  -1    2.22    0.22
   0   8  -1    2.53    0.23
   0   8  -1    2.45    0.24
   0  -8   1    1.99    0.25
   1   8  -1    2.86    0.24
   1   8  -1    2.90    0.28
   1   8  -1    2.88    0.23
   1   8  -1    2.65    0.24
  -1  -8   1    2.91    0.27
  -1  -8   1    3.57    0.35
   2   8  -1    0.32    0.13
  -2  -8   1    0.46    0.17
  -2  -8   1    0.42    0.22
  -2  -8   1    0.36    0.13
  -3  -8   1    0.79    0.20
  -3  -8   1    1.01    0.24
  -4  -8   1    2.77    0.35
  -4  -8   1    2.46    0.30
  -3   9  -1    6.95    0.48
  -3   9  -1    7.13    0.45
  -3   9  -1    7.49    0.59
  -2   9  -1    2.02    0.25
  -2   9  -1    2.20    0.31
  -2   9  -1    1.81    0.24
  -1   9  -1    8.08    0.49
  -1   9  -1    8.22    0.48
  -1   9  -1    8.10    0.54
   0   9  -1    3.38    0.28
   0   9  -1    3.22    0.29
   0   9  -1    3.14    0.30
   1   9  -1    6.97    0.42
   1   9  -1    6.96    0.39
  -1  -9   1    7.07    0.43
  -1  -9   1    7.92    0.55
   2   9  -1    0.11    0.13
  -2  -9   1    0.27    0.26
  -2  -9   1    0.22    0.18
  -3  -9   1    2.30    0.32
  -3  -9   1    2.26    0.29
  -4  -9   1    3.74    0.41
  -4  -9   1    3.36    0.35
  -3  10  -1    1.14    0.35
  -3  10  -1    1.08    0.24
  -3  10  -1    1.26    0.29
  -2  10  -1    2.05    0.33
  -2  10  -1    2.09    0.28
  -2  10  -1    2.12    0.28
  -1  10  -1    0.64    0.22
  -1  10  -1    0.46    0.20
  -1  10  -1    0.88    0.24
   0  10  -1    1.73    0.24
   0  10  -1    1.86    0.26
   0  10  -1    1.71    0.23
   1  10  -1    0.54    0.18
  -1 -10   1    0.77    0.30
  -2 -10   1    2.82    0.37
  -3 -10   1    0.39    0.29
  -3 -10   1    0.13    0.23
  -2  11  -1    3.55    0.44
  -2  11  -1    3.63    0.39
  -2  11  -1    3.53    0.35
  -1  11  -1    0.01    0.25
  -1  11  -1    0.06    0.23
  -1  11  -1   -0.04    0.22
   0  11  -1    1.37    0.24
   1  11  -1   -0.07    0.19
  -1 -11   1    0.05    0.32
  -2 -11   1    1.11    0.36
  -1  12  -1    0.81    0.26
  -1  12  -1    0.85    0.30
  -1  12  -1    1.13    0.31
   0  12  -1    1.16    0.25
   0  12   2    0.03    0.21
  -1  12   2    2.45    0.33
  -2 -11  -2    0.15    0.32
  -1 -11  -2    0.75    0.35
   0  11   2   -0.02    0.20
  -1  11   2    1.89    0.26
  -1  11   2    1.54    0.28
  -1  11   2    1.95    0.28
  -2  11   2    0.07    0.25
  -2  11   2    0.14    0.25
  -2  11   2    0.02    0.22
  -3 -10  -2    0.25    0.25
  -3 -10  -2    0.16    0.26
  -2 -10  -2    0.72    0.28
  -2 -10  -2    0.60    0.24
  -1 -10  -2    0.36    0.29
   0 -10  -2    0.64    0.25
   0  10   2    0.68    0.19
   0  10   2    0.62    0.19
  -1  10   2    4.63    0.38
  -1  10   2    4.46    0.35
  -1  10   2    4.34    0.37
  -2  10   2    5.45    0.41
  -2  10   2    5.42    0.45
  -2  10   2    5.55    0.39
  -3  10   2    3.18    0.32
  -3  10   2    2.78    0.40
  -3  10   2    2.87    0.37
  -3  -9  -2    1.01    0.25
  -3  -9  -2    1.18    0.26
  -2  -9  -2    3.02    0.36
  -2  -9  -2    3.29    0.33
  -1  -9  -2    0.35    0.26
  -1  -9  -2    0.30    0.19
   0  -9  -2   16.26    0.88
   0   9   2   14.96    0.78
   0   9   2   15.12    0.85
   0   9   2   14.92    0.80
  -1   9   2   10.09    0.57
  -1   9   2   10.24    0.62
  -1   9   2   10.26    0.57
  -2   9   2    1.68    0.27
  -2   9   2    1.94    0.24
  -2   9   2    1.79    0.24
  -3   9   2    4.09    0.32
  -3   9   2    4.39    0.37
  -3   9   2    4.42    0.43
  -4   9   2    3.71    0.38
  -4   9   2    3.60    0.42
  -4   9   2    3.47    0.32
  -4  -8  -2    3.14    0.33
  -4  -8  -2    3.11    0.35
  -3  -8  -2    0.26    0.21
  -3  -8  -2    0.21    0.19
  -2  -8  -2    0.71    0.20
  -2  -8  -2    0.72    0.21
   2   8   2    0.69    0.15
  -1  -8  -2   26.61    1.37
  -1  -8  -2   25.89    1.25
   1   8   2   26.62    1.16
   1   8   2   26.29    1.30
   0  -8  -2    3.07    0.27
   0  -8  -2    2.90    0.37
   0   8   2    2.68    0.25
   0   8   2    2.53    0.25
   0   8   2    3.15    0.29
   0   8   2    2.43    0.24
  -1   8   2   11.24    0.65
  -1   8   2   11.02    0.60
  -1   8   2   11.50    0.59
  -1   8   2   10.69    0.54
  -2   8   2   12.36    0.64
  -2   8   2   11.95    0.65
  -2   8   2   12.29    0.73
  -3   8   2    5.80    0.37
  -3   8   2    5.46    0.47
  -3   8   2    6.05    0.38
  -4   8   2    0.50    0.23
  -4   8   2    0.51    0.29
  -4  -7  -2    0.04    0.19
  -4  -7  -2    0.37    0.20
  -3  -7  -2    0.27    0.18
  -3  -7  -2    0.45    0.19
   3   7   2    0.29    0.17
  -2  -7  -2    7.47    0.46
  -2  -7  -2    7.44    0.43
   2   7   2    7.99    0.41
  -1  -7  -2    2.85    0.29
  -1  -7  -2    2.44    0.25
   1   7   2    2.52    0.24
   1   7   2    2.37    0.19
   1   7   2    2.48    0.19
   1   7   2    2.25    0.19
   0  -7  -2   19.61    1.04
   0  -7  -2   18.52    0.92
   0   7   2   19.43    0.93
   0   7   2   19.60    0.97
   0   7   2   19.15    0.86
   0   7   2   19.43    1.03
   1  -7  -2   18.43    0.89
  -1   7   2   17.69    0.82
  -1   7   2   18.63    0.89
  -1   7   2   18.28    0.93
  -1   7   2   19.00    1.00
  -2   7   2    9.80    0.53
  -2   7   2    9.70    0.52
  -2   7   2    9.90    0.49
  -2   7   2    9.57    0.59
  -3   7   2   15.29    0.90
  -3   7   2   15.74    0.77
  -3   7   2   15.39    0.79
  -4   7   2   14.63    0.72
  -4   7   2   13.16    0.85
  -5   7   2    5.95    0.59
  -5   7   2    7.26    0.47
  -4  -6  -2    9.67    0.52
  -4  -6  -2    9.26    0.54
  -3  -6  -2    3.48    0.27
  -3  -6  -2    3.55    0.29
   3   6   2    3.77    0.29
  -2  -6  -2    0.34    0.12
  -2  -6  -2    0.47    0.15
  -2  -6  -2    0.37    0.14
   2   6   2    0.33    0.12
  -1  -6  -2   18.32    0.86
  -1  -6  -2   18.41    0.80
  -1  -6  -2   17.78    0.93
   1   6   2   17.52    0.80
   1   6   2   17.50    0.86
   1   6   2   17.63    0.89
   1   6   2   18.34    0.94
   0  -6  -2   22.29    1.06
   0  -6  -2   23.41    1.19
   0  -6  -2   22.75    0.99
   0   6   2   22.55    1.19
   0   6   2   23.35    1.07
   0   6   2   22.41    1.13
   0   6   2   22.05    0.99
   1  -6  -2   53.39    2.45
   1  -6  -2   52.95    2.27
   1  -6  -2   54.73    2.60
  -1   6   2   51.18    2.26
  -1   6   2   53.05    2.61
  -1   6   2   54.86    2.45
  -1   6   2   54.35    2.76
   2  -6  -2   56.13    2.38
  -2   6   2   55.96    2.56
  -2   6   2   56.83    2.90
  -2   6   2   54.13    2.73
  -2   6   2   57.14    2.37
  -3   6   2   20.27    0.93
  -3   6   2   21.15    1.15
  -3   6   2   20.70    0.99
  -3   6   2   20.89    1.03
  -4   6   2    5.06    0.46
  -4   6   2    5.53    0.36
  -5   6   2    0.03    0.22
  -5   6   2    0.03    0.30
  -5  -5  -2   -0.01    0.18
  -4  -5  -2    0.76    0.17
  -3  -5  -2    2.57    0.23
  -3  -5  -2    2.35    0.21
  -3  -5  -2    2.45    0.23
   3   5   2    3.06    0.26
  -2  -5  -2    6.20    0.37
  -2  -5  -2    6.52    0.35
  -2  -5  -2    6.54    0.33
   2   5   2    6.12    0.33
  -1  -5  -2   30.06    1.27
  -1  -5  -2   30.40    1.48
  -1  -5  -2   30.40    1.37
   1   5   2   29.43    1.27
   1   5   2   28.98    1.37
   1   5   2   28.98    1.45
   1   5   2   29.72    1.52
   0  -5  -2   11.02    0.54
   0  -5  -2   11.14    0.51
   0  -5  -2   11.21    0.62
   0   5   2   11.16    0.50
   0   5   2   11.17    0.60
   0   5   2   11.23    0.57
   0   5   2   11.07    0.55
   1  -5  -2   22.04    0.97
   1  -5  -2   22.94    1.10
   1  -5  -2   22.65    1.05
  -1   5   2   22.05    1.05
  -1   5   2   22.08    1.05
  -1   5   2   22.01    0.97
  -1   5   2   23.21    1.19
  -1   5   2   22.39    1.11
   2  -5  -2    8.00    0.39
   2  -5  -2    7.48    0.42
  -2   5   2    7.89    0.40
  -2   5   2    7.74    0.41
  -2   5   2    7.61    0.41
  -2   5   2    7.69    0.38
  -2   5   2    7.75    0.47
   3  -5  -2   38.98    1.62
  -3   5   2   37.25    1.61
  -3   5   2   37.71    1.73
  -3   5   2   36.92    1.98
  -4   5   2   55.77    2.50
  -4   5   2   54.74    2.85
  -4   5   2   53.00    2.32
  -5   5   2   20.52    1.19
  -5   5   2   21.14    1.01
  -5  -4  -2   10.76    0.56
  -4  -4  -2   20.88    0.95
   4   4   2   18.94    0.94
  -3  -4  -2   32.81    1.42
  -3  -4  -2   32.27    1.51
   3   4   2   33.56    1.46
  -2  -4  -2    0.32    0.10
  -2  -4  -2    0.41    0.10
  -2  -4  -2    0.77    0.11
  -2  -4  -2    0.40    0.11
   2   4   2    0.39    0.11
  -1  -4  -2    0.24    0.08
  -1  -4  -2    0.30    0.10
  -1  -4  -2    0.61    0.09
   1   4   2    0.34    0.08
   1   4   2    0.30    0.07
   1   4   2    0.25    0.07
   0  -4  -2   96.19    4.42
   0  -4  -2  102.02    4.76
   0  -4  -2   96.49    4.08
   0   4   2   95.42    4.42
   0   4   2   96.58    4.08
   0   4   2   99.45    4.73
   0   4   2   97.68    4.97
   1  -4  -2  166.26    7.29
   1  -4  -2  158.09    7.80
   1  -4  -2  157.20    6.72
  -1   4   2  161.99    7.81
  -1   4   2  160.18    7.28
  -1   4   2  160.22    6.72
  -1   4   2  162.21    7.28
  -1   4   2  165.65    8.21
   2  -4  -2  186.61    7.57
  -2   4   2  183.58    9.26
  -2   4   2  178.13    8.21
  -2   4   2  179.16    8.21
  -2   4   2  187.24    7.57
  -2   4   2  178.09    8.20
  -2   4   2  180.36    8.79
   3  -4  -2   51.47    2.12
  -3   4   2   46.82    2.30
  -3   4   2   49.86    2.59
  -3   4   2   50.73    2.28
  -3   4   2   50.79    2.11
   4  -4  -2   22.65    0.97
  -4   4   2   20.44    0.96
  -4   4   2   21.32    1.20
  -4   4   2   22.97    1.03
  -5   4   2    2.64    0.35
  -5   4   2    2.84    0.27
  -5  -3  -2   -0.12    0.15
  -4  -3  -2    0.22    0.12
   4   3   2   -0.05    0.16
  -3  -3  -2   10.53    0.50
  -3  -3  -2   10.35    0.50
  -3  -3  -2   10.28    0.50
   3   3   2    8.96    0.52
  -2  -3  -2   11.50    0.54
  -2  -3  -2   11.19    0.54
  -2  -3  -2   11.61    0.52
   2   3   2   10.82    0.55
  -1  -3  -2   60.05    2.93
  -1  -3  -2   59.79    2.53
  -1  -3  -2   62.46    3.07
  -1  -3  -2   60.79    2.73
  -1  -3  -2   62.74    2.73
   1   3   2   61.20    2.53
   1   3   2   54.68    3.08
   0  -3  -2   54.68    2.61
   0  -3  -2   51.43    2.42
   0  -3  -2   53.55    2.42
   0  -3  -2   53.02    2.23
   0   3   2   53.61    2.59
   0   3   2   51.33    2.42
   0   3   2   54.54    2.72
   0   3   2   54.38    2.23
   1  -3  -2   41.69    1.94
   1  -3  -2   42.33    1.78
  -1   3   2   42.95    1.93
  -1   3   2   43.66    1.93
  -1   3   2   40.89    1.92
  -1   3   2   42.34    2.17
  -1   3   2   42.12    1.77
  -1   3   2   41.78    2.05
   2  -3  -2   16.67    0.69
  -2   3   2   16.02    0.74
  -2   3   2   16.88    0.69
  -2   3   2   13.45    0.76
  -2   3   2   16.16    0.86
   3  -3  -2   75.08    3.03
  -3   3   2   73.71    3.27
  -3   3   2   65.08    3.29
  -3   3   2   72.93    3.71
  -3   3   2   74.44    3.03
   4  -3  -2   96.48    4.03
  -4   3   2   99.39    4.35
  -4   3   2   93.78    4.02
  -4   3   2   94.56    4.93
  -5   3   2   39.64    2.09
  -5   3   2   38.48    1.80
  -5  -2  -2   15.74    0.75
  -4  -2  -2   34.00    1.59
  -4  -2  -2   32.90    1.54
   4   2   2   37.16    1.52
  -3  -2  -2   30.27    1.36
  -3  -2  -2   28.98    1.31
  -3  -2  -2   30.03    1.36
   3   2   2   29.72    1.31
  -2  -2  -2   -0.02    0.06
  -2  -2  -2   -0.11    0.10
  -2  -2  -2    0.17    0.07
   2   2   2   -0.02    0.11
  -1  -2  -2  136.36    6.02
  -1  -2  -2  130.03    6.02
  -1  -2  -2  132.04    6.79
  -1  -2  -2  134.12    5.57
   1   2   2  132.50    5.57
   1   2   2  133.22    6.79
   1   2   2  136.53    6.02
   0  -2  -2  148.13    6.25
   0  -2  -2  148.86    6.77
   0  -2  -2  143.92    6.78
   0  -2  -2  151.86    7.28
   0   2   2  151.47    6.77
   0   2   2  155.43    7.64
   0   2   2  153.56    6.26
   0   2   2  147.43    7.28
   0   2   2  152.17    6.77
   1  -2  -2  235.83    9.47
  -1   2   2  201.85   10.26
  -1   2   2  236.17   10.28
  -1   2   2  224.96   11.02
  -1   2   2  236.70    9.48
  -1   2   2  230.90   11.60
   2  -2  -2  201.24    8.21
  -2   2   2  193.56   10.03
  -2   2   2  199.60    8.90
  -2   2   2  190.01    8.90
  -2   2   2  203.00    8.21
   3  -2  -2   60.58    2.55
  -3   2   2   59.44    3.13
  -3   2   2   61.94    2.75
  -3   2   2   61.59    2.75
  -3   2   2   60.29    2.55
  -4   2   2   11.66    0.54
  -4   2   2   11.63    0.57
  -4   2   2   12.23    0.54
  -4   2   2   11.36    0.56
  -4   2   2   11.82    0.69
  -5   2   2    0.03    0.15
  -5   2   2    0.02    0.22
  -6   2   2    0.09    0.24
  -6   2   2    0.09    0.27
  -5  -1  -2    0.02    0.12
  -4  -1  -2    7.61    0.42
  -4  -1  -2    7.88    0.38
  -4  -1  -2    7.71    0.51
  -3  -1  -2   12.05    0.62
   3   1   2   12.63    0.58
  -2  -1  -2   46.10    1.97
  -2  -1  -2   46.42    2.07
  -2  -1  -2   45.23    2.08
   2   1   2   45.67    1.96
  -1  -1  -2   29.88    1.28
  -1  -1  -2   28.89    1.27
  -1  -1  -2   25.08    1.20
   1   1   2   28.64    1.44
   1   1   2   27.26    1.21
   0  -1  -2   37.40    1.55
   0  -1  -2   35.09    1.80
   0  -1  -2   37.00    1.67
   0  -1  -2   36.36    1.67
   0  -1  -2   38.53    1.89
   0   1   2   37.43    1.67
   0   1   2   36.52    1.89
   0   1   2   37.49    1.55
   0   1   2   36.74    1.67
   0   1   2   35.35    1.79
   0   1   2   37.68    1.68
   1  -1  -2   92.91    3.72
  -1   1   2   85.38    4.33
  -1   1   2   90.13    4.05
  -1   1   2   90.30    4.33
  -1   1   2   88.96    4.55
  -1   1   2   90.19    3.72
  -1   1   2   90.56    4.04
  -1   1   2   87.50    4.33
   2  -1  -2   43.62    1.79
  -2   1   2   43.31    1.94
  -2   1   2   41.89    2.20
  -2   1   2   42.66    1.79
  -2   1   2   42.87    1.94
  -3   1   2  139.93    7.36
  -3   1   2  148.65    6.52
  -3   1   2  140.22    6.01
  -3   1   2  149.39    6.51
  -4   1   2   90.26    4.09
  -4   1   2   89.20    4.08
  -4   1   2   91.56    3.78
  -4   1   2   91.35    3.77
  -4   1   2   88.97    4.63
  -5   1   2   43.63    2.31
  -5   1   2   44.37    2.04
  -6   1   2    5.96    0.49
  -4   0  -2   40.39    1.74
  -3   0  -2   12.35    0.58
  -3   0  -2   12.97    0.62
  -2   0  -2    8.49    0.39
   2   0   2    6.74    0.36
  -1   0  -2  791.71   35.88
  -1   0  -2  766.63   35.78
  -1   0  -2  783.30   33.15
   1   0   2  828.05   40.38
   1   0   2  807.43   33.14
   0   0  -2   74.80    3.73
   0   0  -2   79.07    3.49
   0   0  -2   74.21    3.48
   0   0  -2   79.88    3.22
   0   0   2   83.82    3.73
   0   0   2   72.23    3.93
   0   0   2   79.00    3.48
   0   0   2   73.10    3.73
   1   0  -2  234.03    9.34
   1   0  -2  223.94   10.14
  -1   0   2  223.84   10.87
  -1   0   2  221.12   10.14
  -1   0   2  222.62    9.34
  -1   0   2  227.62   10.15
  -1   0   2  222.11   10.88
  -1   0   2  222.04   11.44
   2   0  -2  117.28    4.82
  -2   0   2  115.12    5.89
  -2   0   2  114.00    5.22
  -2   0   2  115.39    5.23
  -2   0   2  117.85    4.82
  -3   0   2   70.48    2.99
  -3   0   2   74.57    3.26
  -3   0   2   68.88    3.67
  -3   0   2   69.65    3.24
  -3   0   2   75.43    3.00
  -4   0   2    1.58    0.14
  -4   0   2    1.74    0.23
  -4   0   2    1.02    0.20
  -4   0   2    1.33    0.16
  -4   0   2    1.47    0.17
  -5   0   2    4.06    0.36
  -6   0   2    2.77    0.34
  -5   1  -2    0.12    0.26
  -4   1  -2    8.00    0.42
  -3   1  -2   12.03    0.56
  -3   1  -2   11.26    0.54
  -2   1  -2   45.84    1.94
  -2   1  -2   45.69    1.93
  -1   1  -2   28.08    1.27
  -1   1  -2   28.53    1.27
  -1   1  -2   27.93    1.19
   1  -1   2   27.57    1.45
   0   1  -2   35.36    1.62
   0   1  -2   36.16    1.50
   0   1  -2   38.59    1.74
   0   1  -2   37.19    1.62
   0  -1   2   36.49    1.50
   0  -1   2   31.95    1.74
   0  -1   2   35.41    1.74
   0  -1   2   35.30    1.62
   1   1  -2   83.78    4.22
   1   1  -2   90.60    3.62
   1   1  -2   87.20    3.93
   1   1  -2   87.29    4.21
   1   1  -2   88.91    3.62
  -1  -1   2   91.68    4.44
  -1  -1   2   80.62    3.95
  -1  -1   2   86.10    3.93
  -1  -1   2   88.05    4.22
   2   1  -2   41.81    1.82
  -2  -1   2   40.55    1.82
  -2  -1   2   35.79    1.85
  -2  -1   2   42.43    2.06
  -3  -1   2  153.29    6.13
  -3  -1   2  144.26    6.12
  -3  -1   2  144.51    6.64
  -3  -1   2  147.59    7.49
  -4  -1   2   80.46    4.03
  -4  -1   2   92.78    4.50
  -4  -1   2   90.77    3.67
  -5  -1   2   42.06    1.97
  -6  -1   2    8.40    0.50
  -5   2  -2   18.65    1.10
  -4   2  -2   34.20    1.49
  -3   2  -2   30.20    1.33
  -3   2  -2   31.18    1.33
  -2   2  -2   -0.02    0.09
  -2   2  -2   -0.03    0.08
  -1   2  -2  133.99    5.73
  -1   2  -2  135.72    6.20
  -1   2  -2  139.63    5.73
  -1   2  -2  140.83    6.20
   0   2  -2  145.63    6.54
   0   2  -2  151.23    6.53
   0   2  -2  151.59    6.03
   0   2  -2  148.39    7.02
   0  -2   2  125.57    7.01
   0  -2   2  143.82    7.37
   0  -2   2  144.98    7.01
   0  -2   2  144.03    6.53
   0  -2   2  150.17    6.04
   1   2  -2  240.10    9.29
   1   2  -2  228.89   10.94
   1   2  -2  224.73   10.08
  -1  -2   2  220.47   10.07
  -1  -2   2  234.74   10.11
  -1  -2   2  222.34    9.29
  -1  -2   2  213.62   11.35
  -1  -2   2  203.29   10.81
   2   2  -2  193.50    8.61
  -2  -2   2  187.49    8.61
  -2  -2   2  194.25    9.70
  -2  -2   2  194.14    8.62
  -2  -2   2  186.48    9.25
  -3  -2   2   61.91    2.55
  -3  -2   2   60.34    3.13
  -3  -2   2   60.47    2.80
  -3  -2   2   57.21    2.78
  -3  -2   2   66.47    2.55
  -4  -2   2   11.52    0.63
  -4  -2   2   11.46    0.59
  -5  -2   2    0.35    0.17
  -6  -2   2    0.38    0.20
  -5   3  -2    0.09    0.30
  -4   3  -2    0.20    0.16
  -3   3  -2   10.95    0.53
  -3   3  -2   10.36    0.52
  -2   3  -2   11.68    0.55
  -2   3  -2   11.95    0.55
  -2   3  -2   12.16    0.55
  -2   3  -2   11.73    0.54
  -1   3  -2   62.81    2.61
  -1   3  -2   62.29    2.81
  -1   3  -2   63.86    2.81
   1  -3   2   59.91    2.61
   0   3  -2   51.70    2.54
   0   3  -2   54.03    2.19
   0   3  -2   53.15    2.37
   0   3  -2   52.78    2.37
   0  -3   2   52.47    2.37
   0  -3   2   51.76    2.67
   0  -3   2   50.13    2.19
   1   3  -2   41.84    1.97
   1   3  -2   42.18    1.70
   1   3  -2   41.29    1.85
  -1  -3   2   40.30    2.07
  -1  -3   2   40.49    1.69
  -1  -3   2   35.08    1.99
  -1  -3   2   41.89    1.85
  -1  -3   2   41.01    1.84
   2   3  -2   15.85    0.75
   2   3  -2   16.84    0.68
   2   3  -2   16.84    0.83
  -2  -3   2   16.15    0.76
  -2  -3   2   16.60    0.68
  -2  -3   2   16.46    0.76
  -2  -3   2   15.79    0.83
  -2  -3   2   13.92    0.85
   3   3  -2   71.12    3.07
  -3  -3   2   72.90    3.07
  -3  -3   2   77.76    3.76
  -3  -3   2   71.70    3.35
  -3  -3   2   73.03    3.35
  -3  -3   2   76.14    3.58
  -4  -3   2   90.10    4.10
  -5  -3   2   34.98    1.63
  -5   4  -2   12.37    0.84
  -4   4  -2   22.13    1.02
  -3   4  -2   33.55    1.46
  -3   4  -2   32.76    1.53
  -3   4  -2   34.47    1.53
  -2   4  -2    0.40    0.09
  -2   4  -2    0.31    0.12
  -2   4  -2    0.50    0.08
   2  -4   2    0.36    0.11
  -1   4  -2    0.20    0.09
  -1   4  -2    0.26    0.07
  -1   4  -2    0.29    0.09
   1  -4   2    0.31    0.09
   1  -4   2    0.37    0.07
   0   4  -2   98.50    4.67
   0   4  -2   97.08    4.36
   0   4  -2   96.55    4.03
   0   4  -2   98.83    4.36
   0  -4   2   93.72    4.02
   0  -4   2   94.13    4.36
   1   4  -2  162.73    7.59
   1   4  -2  160.09    6.53
   1   4  -2  156.54    7.08
  -1  -4   2  149.61    7.61
  -1  -4   2  154.85    7.09
  -1  -4   2  155.30    6.53
  -1  -4   2  160.13    7.97
   2   4  -2  177.56    7.46
   2   4  -2  180.62    9.10
  -2  -4   2  170.54    8.10
  -2  -4   2  181.32    8.10
  -2  -4   2  180.19    9.10
  -2  -4   2  187.04    7.46
   3   4  -2   46.35    2.04
  -3  -4   2   50.57    2.02
  -3  -4   2   51.68    2.46
  -3  -4   2   44.71    2.38
  -3  -4   2   47.57    2.21
  -4  -4   2   19.31    0.97
  -4  -4   2   21.37    1.05
  -5  -4   2    2.51    0.27
  -5   5  -2    0.07    0.17
  -5   5  -2   -0.09    0.34
  -4   5  -2    1.05    0.17
  -3   5  -2    2.63    0.23
  -3   5  -2    2.57    0.22
  -2   5  -2    6.83    0.36
  -2   5  -2    6.60    0.36
  -2   5  -2    6.91    0.36
   2  -5   2    6.52    0.36
  -1   5  -2   30.06    1.39
  -1   5  -2   29.88    1.30
  -1   5  -2   30.66    1.39
  -1   5  -2   30.42    1.48
   1  -5   2   28.66    1.29
   1  -5   2   31.39    1.39
   0   5  -2   11.03    0.54
   0   5  -2   10.88    0.49
   0   5  -2   11.14    0.56
   0  -5   2   10.66    0.58
   0  -5   2   10.66    0.49
   0  -5   2   10.63    0.52
   1   5  -2   22.62    1.10
   1   5  -2   21.94    0.95
   1   5  -2   22.07    1.04
  -1  -5   2   21.69    1.03
  -1  -5   2   21.60    0.95
  -1  -5   2   23.02    1.13
   2   5  -2    7.69    0.40
   2   5  -2    7.41    0.35
  -2  -5   2    7.65    0.40
  -2  -5   2    7.46    0.35
  -2  -5   2    7.52    0.46
   3   5  -2   34.92    1.47
  -3  -5   2   37.60    1.45
  -3  -5   2   35.17    1.60
  -3  -5   2   29.56    1.74
  -4  -5   2   50.16    2.31
  -5  -5   2   17.38    0.87
  -4   6  -2   11.15    0.58
  -3   6  -2    4.06    0.29
  -2   6  -2    0.37    0.09
  -2   6  -2    0.35    0.14
  -2   6  -2    0.26    0.14
  -1   6  -2   17.55    0.84
  -1   6  -2   17.83    0.85
  -1   6  -2   17.38    0.79
  -1   6  -2   16.94    0.89
   1  -6   2   18.82    0.84
   1  -6   2   17.53    0.79
   0   6  -2   21.80    1.06
   0   6  -2   22.69    1.12
   0   6  -2   22.44    0.98
   0  -6   2   22.45    1.05
   0  -6   2   22.34    0.98
   0  -6   2   23.42    1.15
   1   6  -2   51.72    2.20
   1   6  -2   52.00    2.39
   1   6  -2   52.79    2.55
  -1  -6   2   51.66    2.39
  -1  -6   2   53.57    2.20
  -1  -6   2   51.47    2.58
   2   6  -2   55.43    2.35
   2   6  -2   56.88    2.56
   2   6  -2   54.88    2.71
  -2  -6   2   56.68    2.35
  -2  -6   2   57.57    2.77
  -2  -6   2   54.31    2.56
   3   6  -2   20.98    0.88
  -3  -6   2   19.66    1.06
  -3  -6   2   19.26    0.96
  -4  -6   2    4.56    0.41
  -4  -6   2    4.45    0.32
  -5  -6   2    0.03    0.31
  -5  -6   2    0.12    0.20
  -4   7  -2    0.18    0.21
  -4   7  -2    0.04    0.33
  -3   7  -2    0.20    0.18
  -2   7  -2    7.76    0.43
  -2   7  -2    7.86    0.44
  -1   7  -2    2.28    0.21
  -1   7  -2    2.43    0.22
  -1   7  -2    2.54    0.24
   0   7  -2   19.32    0.93
   0   7  -2   18.83    0.85
   0   7  -2   18.95    0.97
   0  -7   2   19.67    0.92
   0  -7   2   19.68    0.86
   0  -7   2   18.65    0.99
   1   7  -2   17.92    0.89
   1   7  -2   18.45    0.92
   1   7  -2   18.16    0.81
  -1  -7   2   17.78    0.88
  -1  -7   2   18.67    0.97
  -1  -7   2   18.67    0.81
   2   7  -2    9.78    0.46
  -2  -7   2    9.46    0.51
  -2  -7   2   10.51    0.59
  -2  -7   2    9.53    0.46
  -3  -7   2   14.55    0.75
  -3  -7   2   15.27    0.84
  -4  -7   2   12.57    0.67
  -4  -7   2   12.95    0.76
  -5  -7   2    5.76    0.42
  -5  -7   2    5.59    0.51
  -4   8  -2    4.18    0.37
  -4   8  -2    3.72    0.51
  -3   8  -2    0.14    0.21
  -2   8  -2    0.76    0.20
  -2   8  -2    0.69    0.16
  -1   8  -2   25.82    1.23
  -1   8  -2   25.77    1.30
  -1   8  -2   25.86    1.15
   0   8  -2    2.81    0.28
   0   8  -2    2.78    0.24
   0   8  -2    2.59    0.22
   1   8  -2   11.28    0.60
   1   8  -2   11.48    0.60
   1   8  -2   10.85    0.53
  -1  -8   2   11.06    0.53
  -1  -8   2   11.39    0.58
  -1  -8   2   10.52    0.66
   2   8  -2   12.14    0.58
  -2  -8   2   12.26    0.64
  -2  -8   2   13.24    0.73
  -2  -8   2   12.47    0.58
  -3  -8   2    6.23    0.46
  -3  -8   2    5.87    0.38
  -4  -8   2    0.59    0.28
  -4  -8   2    0.46    0.22
  -3   9  -2    0.86    0.31
  -3   9  -2    1.42    0.27
  -3   9  -2    1.06    0.20
  -2   9  -2    3.07    0.32
  -2   9  -2    2.76    0.28
  -1   9  -2    0.17    0.19
  -1   9  -2    0.08    0.17
   0   9  -2   14.34    0.74
   0   9  -2   14.64    0.77
   1   9  -2   10.36    0.56
   1   9  -2   10.29    0.51
  -1  -9   2    9.81    0.65
   2   9  -2    1.59    0.18
  -2  -9   2    1.85    0.23
  -2  -9   2    2.01    0.31
  -3  -9   2    4.37    0.36
  -3  -9   2    4.85    0.45
  -4  -9   2    3.62    0.43
  -4  -9   2    3.25    0.35
  -3  10  -2    0.08    0.22
  -3  10  -2    0.16    0.27
  -3  10  -2    0.18    0.34
  -2  10  -2    0.49    0.29
  -2  10  -2    0.67    0.21
  -2  10  -2    0.70    0.25
  -1  10  -2    0.12    0.23
  -1  10  -2    0.12    0.20
   0  10  -2    0.55    0.20
   0  10  -2    0.88    0.22
   1  10  -2    4.65    0.34
  -1 -10   2    3.43    0.41
  -2 -10   2    5.52    0.51
  -3 -10   2    3.02    0.35
  -3 -10   2    3.36    0.45
  -2  11  -2    0.01    0.23
  -2  11  -2    0.13    0.27
  -2  11  -2    0.07    0.31
  -1  11  -2    0.23    0.28
  -1  11  -2    0.26    0.23
  -1  11  -2    0.16    0.26
   0  11  -2    0.14    0.22
   1  11  -2    1.84    0.24
  -2 -11   2    0.14    0.34
   0  12  -2    0.20    0.24
  -1  12   3    1.04    0.25
  -2 -11  -3    0.25    0.32
  -1 -11  -3    1.41    0.35
   0  11   3    1.28    0.22
  -1  11   3    1.08    0.26
  -1  11   3    1.05    0.23
  -2  11   3    1.64    0.31
  -2  11   3    2.03    0.30
  -2  11   3    1.71    0.26
  -2 -10  -3    0.39    0.28
  -2 -10  -3    0.60    0.25
  -1 -10  -3    4.32    0.45
   0 -10  -3    4.40    0.43
   0  10   3    3.52    0.31
  -1  10   3    0.26    0.21
  -1  10   3    0.26    0.19
  -1  10   3    0.37    0.23
  -2  10   3    1.02    0.22
  -2  10   3    1.16    0.24
  -2  10   3    1.17    0.28
  -3  10   3    0.49    0.22
  -3  10   3    0.45    0.25
  -3  10   3    0.53    0.28
  -3  -9  -3    2.61    0.35
  -3  -9  -3    2.84    0.34
  -2  -9  -3   13.13    0.79
  -2  -9  -3   14.67    0.74
  -1  -9  -3    8.26    0.58
  -1  -9  -3    8.68    0.51
   0  -9  -3   22.18    1.12
   0   9   3   19.90    1.11
   0   9   3   19.70    1.04
  -1   9   3   12.71    0.71
  -1   9   3   13.66    0.71
  -1   9   3   13.46    0.78
  -2   9   3    1.75    0.28
  -2   9   3    2.04    0.24
  -2   9   3    2.07    0.24
  -3   9   3    0.50    0.22
  -3   9   3    0.30    0.26
  -3   9   3    0.30    0.19
  -4   9   3    0.07    0.21
  -4   9   3    0.09    0.29
  -4   9   3    0.31    0.26
  -4  -8  -3    0.10    0.22
  -4  -8  -3    0.29    0.23
  -3  -8  -3    5.55    0.39
  -3  -8  -3    5.30    0.40
  -2  -8  -3    0.16    0.19
  -2  -8  -3    0.16    0.20
  -1  -8  -3   10.98    0.58
  -1  -8  -3   10.28    0.64
   1   8   3   10.53    0.53
   0  -8  -3   10.88    0.66
   0  -8  -3   10.52    0.55
   0   8   3   10.56    0.57
   0   8   3   10.41    0.60
   0   8   3    9.58    0.51
   0   8   3   10.44    0.56
  -1   8   3   20.64    0.99
  -1   8   3   19.75    1.03
  -1   8   3   20.46    1.11
  -2   8   3   17.64    0.96
  -2   8   3   16.46    0.87
  -2   8   3   16.53    0.84
  -3   8   3    1.79    0.22
  -3   8   3    1.80    0.29
  -3   8   3    2.18    0.27
  -4   8   3   -0.07    0.18
  -4   8   3    0.20    0.28
  -4   8   3    0.33    0.23
  -4  -7  -3    2.51    0.30
  -4  -7  -3    2.78    0.29
  -3  -7  -3    6.47    0.40
  -3  -7  -3    6.24    0.42
  -2  -7  -3   55.55    2.79
  -2  -7  -3   57.35    2.61
   2   7   3   57.20    2.42
  -1  -7  -3   29.08    1.37
  -1  -7  -3   29.46    1.48
   1   7   3   28.94    1.51
   1   7   3   29.05    1.42
   1   7   3   28.95    1.27
   0  -7  -3   45.35    2.11
   0  -7  -3   45.50    2.30
   0   7   3   47.23    2.11
   0   7   3   45.26    2.36
   0   7   3   44.37    1.95
   0   7   3   46.44    2.24
   1  -7  -3   30.86    1.54
   1  -7  -3   31.29    1.47
  -1   7   3   30.33    1.35
  -1   7   3   31.09    1.55
  -1   7   3   31.05    1.46
  -1   7   3   32.57    1.65
  -2   7   3    4.90    0.32
  -2   7   3    5.30    0.31
  -2   7   3    4.96    0.32
  -2   7   3    4.88    0.39
  -3   7   3    2.15    0.22
  -3   7   3    1.98    0.28
  -3   7   3    2.07    0.25
  -4   7   3    0.57    0.27
  -4   7   3    0.64    0.21
  -5   7   3    0.80    0.26
  -5   7   3    0.46    0.30
  -4  -6  -3    1.43    0.21
  -3  -6  -3    0.61    0.17
  -3  -6  -3    0.68    0.18
   3   6   3    0.86    0.20
  -2  -6  -3    0.60    0.16
  -2  -6  -3    0.79    0.16
   2   6   3    0.56    0.14
  -1  -6  -3   10.50    0.58
  -1  -6  -3   10.36    0.51
  -1  -6  -3   10.54    0.54
   1   6   3   10.46    0.53
   1   6   3   10.43    0.53
   1   6   3   10.52    0.50
   1   6   3   10.65    0.57
   0  -6  -3   34.49    1.43
   0  -6  -3   31.94    1.69
   0  -6  -3   32.53    1.54
   0   6   3   32.67    1.43
   0   6   3   33.56    1.72
   0   6   3   33.80    1.64
   0   6   3   33.74    1.54
   1  -6  -3   32.10    1.37
   1  -6  -3   31.52    1.56
   1  -6  -3   32.30    1.48
  -1   6   3   31.88    1.48
  -1   6   3   32.53    1.66
  -1   6   3   30.16    1.36
  -1   6   3   31.41    1.56
   2  -6  -3   23.01    1.04
  -2   6   3   24.07    1.04
  -2   6   3   23.69    1.18
  -2   6   3   23.98    1.28
  -2   6   3   23.75    1.12
  -3   6   3    9.47    0.51
  -3   6   3    9.76    0.49
  -3   6   3    9.69    0.51
  -3   6   3    9.73    0.61
  -4   6   3    1.00    0.25
  -4   6   3    1.11    0.20
  -5   6   3    0.93    0.23
  -5   6   3    0.39    0.30
  -4  -5  -3    4.24    0.31
  -3  -5  -3   33.59    1.72
  -3  -5  -3   34.87    1.62
   3   5   3   36.50    1.56
  -2  -5  -3   59.48    3.01
  -2  -5  -3   62.79    2.81
  -2  -5  -3   61.21    2.61
   2   5   3   60.27    2.62
   2   5   3   64.45    3.14
  -1  -5  -3   66.03    2.95
  -1  -5  -3   64.73    3.16
  -1  -5  -3   64.71    2.73
   1   5   3   63.73    2.94
   1   5   3   64.46    3.31
   1   5   3   64.72    2.73
   0  -5  -3   12.62    0.62
   0  -5  -3   12.69    0.58
   0  -5  -3   12.92    0.70
   0   5   3   12.60    0.62
   0   5   3   12.78    0.64
   0   5   3   12.50    0.57
   0   5   3   12.71    0.68
   1  -5  -3   37.93    1.84
   1  -5  -3   37.46    1.60
   1  -5  -3   38.29    1.74
  -1   5   3   37.26    1.60
  -1   5   3   37.57    1.84
  -1   5   3   37.91    1.95
  -1   5   3   36.76    1.73
   2  -5  -3   17.82    0.78
  -2   5   3   16.68    0.83
  -2   5   3   17.50    0.95
  -2   5   3   17.04    0.87
  -2   5   3   17.76    0.85
  -2   5   3   17.85    0.77
   3  -5  -3    0.11    0.12
  -3   5   3    0.11    0.17
  -3   5   3    0.15    0.12
  -3   5   3    0.17    0.13
  -3   5   3    0.25    0.10
  -4   5   3   16.45    0.97
  -4   5   3   17.07    0.77
  -4   5   3   16.86    0.82
  -5   5   3    0.57    0.21
  -5   5   3    0.54    0.29
  -5  -4  -3    1.70    0.21
  -4  -4  -3   10.42    0.50
   4   4   3    8.57    0.55
  -3  -4  -3    4.18    0.28
  -3  -4  -3    4.53    0.31
   3   4   3    5.68    0.37
  -2  -4  -3    7.13    0.40
  -2  -4  -3    7.70    0.40
  -2  -4  -3    7.47    0.39
  -2  -4  -3    7.45    0.38
   2   4   3    7.58    0.40
   2   4   3    7.64    0.41
  -1  -4  -3    5.32    0.28
  -1  -4  -3    5.50    0.30
  -1  -4  -3    5.11    0.31
  -1  -4  -3    5.31    0.30
   1   4   3    5.01    0.32
   1   4   3    5.40    0.28
   0  -4  -3  104.28    5.03
   0  -4  -3  100.44    4.67
   0   4   3  102.08    4.31
   0   4   3  105.18    5.00
   0   4   3  106.37    5.26
   0   4   3  101.25    4.67
   1  -4  -3   22.97    1.07
   1  -4  -3   22.61    0.97
   1  -4  -3   24.22    1.12
  -1   4   3   22.29    1.05
  -1   4   3   22.34    1.19
  -1   4   3   21.81    1.11
  -1   4   3   21.84    0.97
   2  -4  -3   26.61    1.24
   2  -4  -3   27.86    1.14
  -2   4   3   25.19    1.25
  -2   4   3   26.64    1.14
  -2   4   3   25.86    1.23
  -2   4   3   26.82    1.40
  -2   4   3   26.57    1.30
   3  -4  -3   23.35    1.00
  -3   4   3   22.52    0.99
  -3   4   3   23.15    1.12
  -3   4   3   22.16    1.22
  -3   4   3   22.84    1.07
   4  -4  -3    4.64    0.28
  -4   4   3    4.77    0.40
  -4   4   3    4.78    0.31
  -4   4   3    4.76    0.29
  -5   4   3    5.61    0.37
  -5   4   3    5.53    0.48
  -5  -3  -3    0.81    0.16
  -4  -3  -3    3.33    0.23
   4   3   3    2.66    0.29
  -3  -3  -3   56.97    2.67
  -3  -3  -3   59.28    2.52
   3   3   3   60.34    2.53
  -2  -3  -3  139.74    6.23
  -2  -3  -3  138.58    5.78
  -2  -3  -3  137.92    6.23
   2   3   3  130.97    5.80
   2   3   3  142.99    7.01
  -1  -3  -3  159.45    6.99
  -1  -3  -3  150.77    7.50
  -1  -3  -3  154.07    6.46
  -1  -3  -3  153.92    6.99
   1   3   3  149.75    6.46
   1   3   3  156.49    7.89
   1   3   3  160.73    6.99
   0  -3  -3   16.38    0.84
   0  -3  -3   16.02    0.77
   0  -3  -3   15.74    0.71
   0  -3  -3   16.13    0.77
   0   3   3   16.71    0.77
   0   3   3   16.98    0.86
   0   3   3   16.52    0.81
   0   3   3   16.41    0.71
   1  -3  -3   67.92    3.14
   1  -3  -3   66.69    2.71
   1  -3  -3   62.66    2.96
  -1   3   3   63.25    2.95
  -1   3   3   62.76    2.95
  -1   3   3   65.90    2.71
  -1   3   3   64.81    3.31
  -1   3   3   64.76    2.94
  -1   3   3   64.14    3.14
   2  -3  -3   28.28    1.22
   2  -3  -3   26.74    1.13
  -2   3   3   23.76    1.25
  -2   3   3   27.05    1.13
  -2   3   3   26.52    1.29
  -2   3   3   25.85    1.22
  -2   3   3   26.91    1.39
   3  -3  -3    1.02    0.12
  -3   3   3    1.17    0.17
  -3   3   3    0.95    0.11
  -3   3   3    0.71    0.17
  -3   3   3    0.99    0.13
   4  -3  -3   35.58    1.50
  -4   3   3   35.22    1.62
  -4   3   3   35.44    1.50
  -4   3   3   33.85    1.85
  -5   3   3    0.48    0.17
  -5   3   3    0.48    0.25
  -5  -2  -3    6.25    0.35
  -4  -2  -3   14.93    0.72
   4   2   3   15.86    0.76
  -3  -2  -3    0.32    0.09
  -3  -2  -3   -0.04    0.18
  -3  -2  -3    0.43    0.11
   3   2   3    0.00    0.16
  -2  -2  -3    1.24    0.18
  -2  -2  -3    1.64    0.17
  -2  -2  -3    1.86    0.14
   2   2   3    2.20    0.16
   2   2   3    1.72    0.19
  -1  -2  -3    2.26    0.16
  -1  -2  -3    2.46    0.16
  -1  -2  -3    2.13    0.18
  -1  -2  -3    2.16    0.14
   1   2   3    2.56    0.16
   1   2   3    2.43    0.18
   0  -2  -3  154.68    6.54
   0  -2  -3  154.40    7.62
   0  -2  -3  152.85    7.09
   0  -2  -3  156.36    7.09
   0   2   3  160.53    6.54
   0   2   3  154.38    7.61
   0   2   3  163.20    7.09
   0   2   3  161.21    7.98
   1  -2  -3  215.06   10.05
   1  -2  -3  204.36    8.62
   1  -2  -3  198.28    9.37
  -1   2   3  216.89    9.36
  -1   2   3  191.92    9.37
  -1   2   3  212.79   10.55
  -1   2   3  214.39    8.65
  -1   2   3  206.96   10.05
   2  -2  -3  129.12    5.90
   2  -2  -3  133.33    5.45
  -2   2   3  132.32    5.91
  -2   2   3  129.25    5.45
  -2   2   3  131.52    5.92
  -2   2   3  129.87    6.66
  -2   2   3  130.76    6.33
   3  -2  -3   28.04    1.20
  -3   2   3   29.13    1.20
  -3   2   3   27.81    1.30
  -3   2   3   28.57    1.30
  -3   2   3   27.09    1.48
  -4   2   3    7.81    0.43
  -4   2   3    8.50    0.52
  -4   2   3    8.15    0.39
  -5   2   3    4.52    0.33
  -5   2   3    4.37    0.40
  -6   2   3   14.03    0.85
  -6   2   3   12.86    0.76
  -5  -1  -3    0.39    0.12
  -4  -1  -3    1.69    0.15
  -4  -1  -3    1.78    0.19
  -3  -1  -3   27.83    1.15
  -3  -1  -3   23.84    1.15
  -3  -1  -3   23.05    1.13
   3   1   3   25.29    1.12
  -2  -1  -3  634.68   23.92
  -2  -1  -3  561.19   25.90
  -2  -1  -3  597.90   25.90
   2   1   3  507.29   23.94
  -1  -1  -3  207.11    8.82
  -1  -1  -3  218.82    9.54
  -1  -1  -3  204.14    9.54
   1   1   3  228.57   10.76
   1   1   3  223.78    8.83
   1   1   3  187.82    9.53
   0  -1  -3  212.07    9.45
   0  -1  -3  216.72    8.72
   0  -1  -3  219.36    9.44
   0  -1  -3  195.52   10.14
   0   1   3  203.19   10.14
   0   1   3  211.59    8.71
   0   1   3  205.12   10.64
   0   1   3  212.84    9.45
   1  -1  -3  150.20    6.82
   1  -1  -3  151.56    7.31
   1  -1  -3  148.13    6.28
  -1   1   3  153.59    7.68
  -1   1   3  149.17    6.81
  -1   1   3  154.77    6.29
  -1   1   3  150.10    6.83
  -1   1   3  151.12    7.32
   2  -1  -3   40.18    1.88
   2  -1  -3   43.55    1.74
  -2   1   3   41.88    1.89
  -2   1   3   40.16    2.01
  -2   1   3   40.87    1.74
  -2   1   3   41.68    1.89
  -2   1   3   42.27    2.14
   3  -1  -3   41.60    1.77
  -3   1   3   42.95    1.92
  -3   1   3   42.76    1.77
  -3   1   3   42.44    1.92
  -3   1   3   40.77    2.18
  -4   1   3   19.17    0.91
  -4   1   3   18.95    0.82
  -4   1   3   18.92    1.03
  -5   1   3    6.81    0.47
  -5   1   3    7.00    0.49
  -6   1   3    1.81    0.35
  -4   0  -3   12.93    0.63
  -3   0  -3   11.65    0.62
   3   0   3   12.74    0.59
  -2   0  -3    0.19    0.14
  -2   0  -3    0.75    0.08
   2   0   3    0.74    0.13
  -1   0  -3    5.15    0.29
  -1   0  -3    5.64    0.27
  -1   0  -3    5.52    0.28
  -1   0  -3    5.47    0.27
   1   0   3    5.66    0.32
   1   0   3    4.94    0.29
   0   0  -3  140.11    6.99
   0   0  -3  145.41    6.02
   0   0  -3  142.60    6.52
   0   0  -3  147.78    6.53
   0   0   3  142.54    6.52
   0   0   3  139.85    6.02
   0   0   3  139.13    7.35
   0   0   3  137.88    6.98
   0   0   3  163.09    6.98
   1   0  -3  471.38   19.73
   1   0  -3  493.06   21.42
   1   0  -3  463.01   22.95
  -1   0   3  483.47   24.16
  -1   0   3  467.70   21.41
  -1   0   3  467.12   22.97
  -1   0   3  460.96   19.74
  -1   0   3  490.10   21.46
   2   0  -3  386.37   17.15
   2   0  -3  385.92   15.81
  -2   0   3  372.39   15.81
  -2   0   3  381.42   17.17
  -2   0   3  376.81   18.41
  -2   0   3  382.35   17.24
  -2   0   3  380.01   19.38
  -3   0   3   22.38    0.95
  -3   0   3   23.00    1.05
  -3   0   3   23.42    1.07
  -3   0   3   22.44    0.95
  -3   0   3   21.80    1.19
  -4   0   3    7.62    0.47
  -4   0   3    8.01    0.48
  -5   0   3    2.01    0.25
  -5   0   3    1.01    0.30
  -6   0   3   21.16    1.09
  -5   1  -3    0.74    0.28
  -4   1  -3    1.79    0.20
  -3   1  -3   23.62    1.07
  -3   1  -3   24.59    1.07
  -2   1  -3  585.43   24.35
  -1   1  -3  220.86    9.55
  -1   1  -3  209.86    8.83
  -1   1  -3  203.96    9.56
   1  -1   3  213.96   10.80
   0   1  -3  205.05    9.28
   0   1  -3  178.38    9.96
   0   1  -3  203.47    8.56
   0   1  -3  215.24    9.31
   0  -1   3  191.24    9.28
   0  -1   3  230.02    9.95
   0  -1   3  217.85    8.56
   1   1  -3  147.61    6.68
   1   1  -3  147.10    7.16
   1   1  -3  152.55    6.16
  -1  -1   3  150.57    7.17
  -1  -1   3  151.17    6.16
  -1  -1   3  156.24    6.68
  -1  -1   3  148.82    7.54
  -1  -1   3  130.66    6.69
   2   1  -3   42.53    1.87
  -2  -1   3   40.74    2.00
  -2  -1   3   41.34    1.87
  -2  -1   3   41.85    2.11
  -2  -1   3   38.99    1.91
  -3  -1   3   38.37    1.88
  -3  -1   3   41.29    2.07
  -3  -1   3   40.68    1.83
  -4  -1   3   19.22    0.94
  -4  -1   3   15.25    0.90
  -5  -1   3    6.85    0.47
  -6  -1   3    3.62    0.36
  -3   2  -3    0.32    0.14
  -2   2  -3    1.69    0.17
  -2   2  -3    1.33    0.10
  -2   2  -3    1.56    0.16
  -2   2  -3    0.97    0.11
  -1   2  -3    2.10    0.15
  -1   2  -3    2.05    0.14
  -1   2  -3    2.32    0.16
  -1   2  -3    2.46    0.16
   1  -2   3    2.25    0.18
   0   2  -3  161.57    6.53
   0   2  -3  165.08    7.60
   0   2  -3  160.09    7.08
   0   2  -3  157.44    6.53
   0   2  -3  160.92    7.08
   0  -2   3  134.36    7.59
   0  -2   3  160.82    7.08
   0  -2   3  160.08    7.99
   0  -2   3  153.80    7.59
   1   2  -3  206.04    9.90
   1   2  -3  197.25    9.22
   1   2  -3  210.65    8.50
   1   2  -3  207.92    8.50
  -1  -2   3  204.27    9.22
  -1  -2   3  223.93    9.23
  -1  -2   3  212.33    9.91
  -1  -2   3  173.98   10.39
  -2  -2   3  129.52    5.88
  -2  -2   3  133.49    6.61
  -2  -2   3  130.52    6.29
  -2  -2   3  125.85    5.86
  -3  -2   3   26.98    1.27
  -3  -2   3   27.44    1.39
  -3  -2   3   25.31    1.24
  -3  -2   3   27.48    1.31
  -4  -2   3    8.03    0.47
  -4  -2   3    8.02    0.47
  -5  -2   3    5.03    0.38
  -6  -2   3   13.76    0.73
  -3   3  -3   58.89    2.52
  -3   3  -3   59.82    2.68
  -2   3  -3  145.55    6.41
  -2   3  -3  136.34    5.94
  -2   3  -3  140.30    6.40
  -2   3  -3  146.32    5.94
  -1   3  -3  154.63    7.10
  -1   3  -3  151.94    6.57
  -1   3  -3  162.91    6.57
  -1   3  -3  161.16    7.11
   0   3  -3   16.93    0.82
   0   3  -3   16.59    0.77
   0   3  -3   16.25    0.77
   0   3  -3   15.84    0.72
   0  -3   3   17.33    0.82
   0  -3   3   16.17    0.77
   0  -3   3   16.74    0.72
   0  -3   3   16.54    0.87
   1   3  -3   65.44    3.19
   1   3  -3   66.45    2.75
   1   3  -3   67.26    2.99
  -1  -3   3   60.51    3.21
  -1  -3   3   68.91    2.99
  -1  -3   3   64.68    2.75
  -1  -3   3   67.57    3.36
   2   3  -3   25.37    1.05
  -2  -3   3   26.71    1.05
  -2  -3   3   25.89    1.27
  -2  -3   3   26.90    1.18
  -2  -3   3   23.68    1.16
  -2  -3   3   22.50    1.32
  -3  -3   3    0.88    0.14
  -3  -3   3    1.02    0.15
  -3  -3   3    0.86    0.13
  -3  -3   3    1.67    0.20
  -4  -3   3   34.73    1.65
  -4  -3   3   35.64    1.73
  -5  -3   3    0.78    0.20
  -5   4  -3    2.17    0.40
  -4   4  -3   11.01    0.53
  -3   4  -3    4.42    0.25
  -3   4  -3    4.82    0.27
  -3   4  -3    4.41    0.30
  -2   4  -3    7.87    0.38
  -2   4  -3    7.49    0.38
  -2   4  -3    7.10    0.38
  -2   4  -3    7.73    0.39
  -1   4  -3    5.49    0.29
  -1   4  -3    4.96    0.28
  -1   4  -3    5.71    0.29
  -1   4  -3    5.18    0.28
   1  -4   3    4.98    0.27
   0   4  -3  101.55    4.99
   0   4  -3  101.62    4.30
   0   4  -3  102.83    4.66
   0   4  -3  104.48    4.66
   0  -4   3  102.45    4.66
   0  -4   3  113.13    5.00
   0  -4   3   95.59    4.30
   1   4  -3   22.39    1.00
   1   4  -3   21.97    1.06
   1   4  -3   22.08    0.91
  -1  -4   3   18.56    1.08
  -1  -4   3   21.88    1.12
  -1  -4   3   21.97    1.00
  -1  -4   3   21.11    0.91
   2   4  -3   25.29    1.08
   2   4  -3   25.49    1.19
  -2  -4   3   25.29    1.08
  -2  -4   3   24.54    1.30
  -2  -4   3   25.94    1.20
  -2  -4   3   26.79    1.33
  -3  -4   3   20.94    1.11
  -3  -4   3   21.49    1.00
  -3  -4   3   20.44    1.10
  -4  -4   3    4.57    0.31
  -4  -4   3    4.30    0.36
  -5  -4   3    5.37    0.37
  -5   5  -3    0.56    0.36
  -4   5  -3    4.40    0.29
  -3   5  -3   36.75    1.69
  -2   5  -3   64.00    2.87
  -2   5  -3   61.99    2.86
  -2   5  -3   62.98    2.67
  -1   5  -3   65.61    2.96
  -1   5  -3   66.42    3.16
  -1   5  -3   63.77    2.75
  -1   5  -3   63.96    2.96
   1  -5   3   69.58    2.95
   1  -5   3   61.36    2.74
   0   5  -3   12.57    0.59
   0   5  -3   12.76    0.67
   0   5  -3   12.99    0.64
   0  -5   3   12.92    0.63
   0  -5   3   14.79    0.68
   0  -5   3   12.63    0.59
   1   5  -3   37.34    1.79
   1   5  -3   37.68    1.68
   1   5  -3   37.15    1.54
  -1  -5   3   32.92    1.81
  -1  -5   3   36.71    1.54
  -1  -5   3   36.71    1.68
   2   5  -3   17.15    0.83
   2   5  -3   17.24    0.81
   2   5  -3   16.95    0.72
  -2  -5   3   17.01    0.88
  -2  -5   3   16.32    0.81
  -2  -5   3   14.68    0.89
  -2  -5   3   17.79    0.72
   3   5  -3    0.10    0.09
  -3  -5   3   -0.09    0.22
  -3  -5   3    0.22    0.14
  -4  -5   3   14.55    0.69
  -4  -5   3   12.39    0.80
  -5  -5   3    0.43    0.31
  -5  -5   3    0.49    0.20
  -4   6  -3    1.84    0.22
  -3   6  -3    0.63    0.17
  -2   6  -3    0.59    0.15
  -2   6  -3    0.60    0.15
  -1   6  -3   10.24    0.55
  -1   6  -3   10.72    0.54
  -1   6  -3   10.51    0.51
   1  -6   3   10.34    0.50
   0   6  -3   32.61    1.46
   0   6  -3   34.74    1.58
   0   6  -3   33.86    1.68
   0  -6   3   34.07    1.46
   0  -6   3   33.37    1.57
   0  -6   3   35.67    1.68
   1   6  -3   31.81    1.53
   1   6  -3   32.04    1.44
   1   6  -3   30.99    1.32
  -1  -6   3   30.77    1.44
  -1  -6   3   27.69    1.55
  -1  -6   3   32.17    1.32
   2   6  -3   23.84    1.00
   2   6  -3   23.35    1.15
   2   6  -3   24.29    1.11
  -2  -6   3   21.75    1.21
  -2  -6   3   24.15    1.00
  -2  -6   3   22.42    1.10
  -3  -6   3    7.85    0.55
  -3  -6   3    8.93    0.46
  -4  -6   3    0.89    0.19
  -4  -6   3    0.13    0.27
  -5  -6   3    0.61    0.21
  -5  -6   3   -0.09    0.33
  -4   7  -3    2.68    0.30
  -3   7  -3    6.99    0.42
  -2   7  -3   61.27    2.98
  -2   7  -3   60.95    2.80
  -1   7  -3   29.25    1.35
  -1   7  -3   29.07    1.26
  -1   7  -3   27.74    1.42
   0   7  -3   46.55    1.97
   0   7  -3   45.65    2.26
   0   7  -3   45.97    2.13
   0  -7   3   46.06    1.96
   0  -7   3   46.30    2.12
   1   7  -3   31.37    1.33
   1   7  -3   31.24    1.53
   1   7  -3   31.83    1.45
  -1  -7   3   27.14    1.56
  -1  -7   3   32.05    1.44
  -1  -7   3   31.23    1.33
   2   7  -3    5.03    0.27
   2   7  -3    5.05    0.30
  -2  -7   3    5.27    0.29
  -2  -7   3    4.88    0.40
  -2  -7   3    4.84    0.33
  -3  -7   3    1.81    0.30
  -3  -7   3    2.16    0.25
  -4  -7   3    0.44    0.18
  -4  -7   3    0.44    0.29
  -5  -7   3    0.63    0.24
  -5  -7   3    0.45    0.34
  -4   8  -3    0.20    0.24
  -3   8  -3    5.71    0.40
  -2   8  -3    0.18    0.19
  -2   8  -3    0.09    0.16
  -1   8  -3   10.47    0.56
  -1   8  -3   10.06    0.56
   0   8  -3    9.83    0.56
   0   8  -3   10.20    0.50
   0   8  -3   10.35    0.56
   1   8  -3   19.94    0.86
   1   8  -3   19.70    0.95
   1   8  -3   19.83    0.98
  -1  -8   3   16.62    1.03
  -1  -8   3   20.29    0.94
   2   8  -3   16.72    0.75
   2   8  -3   17.32    0.84
  -2  -8   3   16.84    0.83
  -2  -8   3   15.51    0.92
  -3  -8   3    1.75    0.31
  -3  -8   3    1.99    0.25
  -4  -8   3    0.12    0.20
  -4  -8   3    0.33    0.30
  -3   9  -3    2.84    0.35
  -2   9  -3   13.80    0.77
  -2   9  -3   14.95    0.76
  -1   9  -3    8.62    0.52
  -1   9  -3    8.38    0.50
   0   9  -3   18.53    0.99
   0   9  -3   19.92    0.96
   1   9  -3   13.13    0.71
   1   9  -3   12.84    0.63
   1   9  -3   13.95    0.71
  -1  -9   3   13.23    0.79
  -2  -9   3    1.89    0.32
  -2  -9   3    2.01    0.23
  -3  -9   3    0.37    0.20
  -3  -9   3    0.36    0.29
  -4  -9   3    0.16    0.22
  -4  -9   3    0.26    0.32
  -2  10  -3    0.34    0.22
  -2  10  -3    0.21    0.25
  -1  10  -3    4.61    0.36
  -1  10  -3    4.47    0.38
   0  10  -3    3.41    0.31
   0  10  -3    3.59    0.34
   1  10  -3    0.53    0.20
  -2 -10   3    0.66    0.32
  -3 -10   3    0.18    0.33
  -2  11  -3    0.45    0.29
  -2  11  -3    0.39    0.24
  -1  11  -3    0.93    0.24
  -1  11  -3    0.87    0.27
   0  11  -3    1.04    0.23
   1  11  -3    1.09    0.23
  -2 -11   3    1.14    0.38
   0  12  -3    0.46    0.25
  -1 -11  -4    1.33    0.36
   0  11   4    0.60    0.20
  -1  11   4    0.06    0.22
  -1  11   4    0.12    0.22
  -2  11   4    0.29    0.26
  -2  11   4    0.51    0.26
  -2  11   4    0.38    0.22
  -2 -10  -4    1.84    0.28
  -2 -10  -4    1.75    0.34
  -1 -10  -4    2.39    0.36
   0 -10  -4    0.96    0.27
   0  10   4    0.53    0.19
  -1  10   4   -0.06    0.20
  -1  10   4    0.08    0.20
  -2  10   4    0.59    0.21
  -2  10   4    0.59    0.25
  -2  10   4    0.36    0.26
  -3  10   4    0.52    0.23
  -3  10   4    0.45    0.28
  -3  10   4    0.52    0.26
  -3  -9  -4    1.65    0.27
  -3  -9  -4    1.38    0.29
  -2  -9  -4    3.11    0.34
  -2  -9  -4    2.45    0.33
  -1  -9  -4    0.65    0.20
  -1  -9  -4    0.34    0.26
   0  -9  -4    0.64    0.24
   0   9   4    0.40    0.17
   0   9   4    0.46    0.18
  -1   9   4    0.47    0.22
  -1   9   4    0.54    0.20
  -1   9   4    0.50    0.18
  -2   9   4    1.28    0.24
  -2   9   4    1.01    0.21
  -2   9   4    1.04    0.26
  -3   9   4    1.83    0.31
  -3   9   4    2.05    0.28
  -3   9   4    1.97    0.27
  -4   9   4    3.76    0.45
  -4   9   4    4.15    0.39
  -4   9   4    3.57    0.35
  -3  -8  -4    8.73    0.55
  -3  -8  -4    8.45    0.52
  -2  -8  -4    0.68    0.23
  -2  -8  -4    0.40    0.20
  -1  -8  -4   10.63    0.58
  -1  -8  -4   10.63    0.65
   0  -8  -4    5.07    0.36
   0  -8  -4    5.81    0.43
   0  -8  -4    4.83    0.38
   0   8   4    5.29    0.36
   0   8   4    5.30    0.34
   0   8   4    5.32    0.36
  -1   8   4    0.99    0.18
  -1   8   4    0.89    0.20
  -1   8   4    0.47    0.18
  -2   8   4    2.49    0.32
  -2   8   4    2.46    0.29
  -2   8   4    2.33    0.26
  -3   8   4    0.69    0.26
  -3   8   4    1.11    0.20
  -3   8   4    0.91    0.22
  -4   8   4    2.20    0.35
  -4   8   4    2.75    0.32
  -4   8   4    2.10    0.27
  -4  -7  -4    0.33    0.22
  -4  -7  -4    0.46    0.23
  -3  -7  -4    3.58    0.34
  -3  -7  -4    3.99    0.32
  -2  -7  -4    7.40    0.48
  -2  -7  -4    7.86    0.45
  -1  -7  -4    0.27    0.16
  -1  -7  -4    0.15    0.19
   1   7   4    0.27    0.13
   1   7   4    0.22    0.13
   0  -7  -4    2.31    0.25
   0  -7  -4    1.98    0.24
   0  -7  -4    2.09    0.27
   0   7   4    2.36    0.25
   0   7   4    2.07    0.21
   0   7   4    2.09    0.23
   0   7   4    2.02    0.21
   1  -7  -4    1.77    0.24
  -1   7   4    2.27    0.25
  -1   7   4    2.42    0.26
  -1   7   4    2.18    0.21
  -1   7   4    2.26    0.22
  -2   7   4    2.67    0.22
  -2   7   4    2.53    0.27
  -2   7   4    2.62    0.28
  -2   7   4    2.59    0.25
  -3   7   4    8.57    0.49
  -3   7   4    8.36    0.48
  -3   7   4    8.52    0.56
  -4   7   4    7.92    0.47
  -4   7   4    7.11    0.53
  -5   7   4   16.89    0.85
  -5   7   4   15.09    0.97
  -4  -6  -4   13.51    0.70
  -3  -6  -4   25.18    1.28
  -3  -6  -4   25.49    1.20
  -2  -6  -4   15.27    0.75
  -2  -6  -4   14.93    0.80
   2   6   4   15.19    0.72
  -1  -6  -4    3.53    0.28
  -1  -6  -4    3.75    0.31
   1   6   4    4.23    0.27
   1   6   4    3.83    0.28
   0  -6  -4    0.21    0.11
   0  -6  -4    0.24    0.13
   0  -6  -4    0.21    0.18
   0  -6  -4    0.27    0.13
   0   6   4    0.22    0.12
   0   6   4    0.24    0.11
   0   6   4    0.35    0.13
   0   6   4    0.32    0.11
   1  -6  -4    3.37    0.28
   1  -6  -4    3.02    0.24
   1  -6  -4    2.20    0.25
  -1   6   4    2.99    0.22
  -1   6   4    3.12    0.23
  -1   6   4    3.23    0.24
  -1   6   4    3.12    0.26
  -2   6   4   10.54    0.56
  -2   6   4   10.63    0.52
  -2   6   4   10.74    0.57
  -2   6   4   10.73    0.64
  -3   6   4   15.99    0.81
  -3   6   4   16.24    0.75
  -3   6   4   17.04    0.94
  -3   6   4   16.23    0.84
  -4   6   4    0.78    0.19
  -4   6   4    0.70    0.25
  -4   6   4    0.69    0.16
  -5   6   4   -0.09    0.28
  -5   6   4   -0.07    0.22
  -4  -5  -4    0.67    0.18
  -3  -5  -4   10.41    0.55
  -3  -5  -4   10.20    0.57
   3   5   4   11.49    0.59
  -2  -5  -4   29.08    1.35
  -2  -5  -4   27.41    1.43
   2   5   4   30.61    1.50
   2   5   4   28.03    1.27
  -1  -5  -4   43.35    1.80
  -1  -5  -4   43.29    1.94
  -1  -5  -4   43.70    2.08
   1   5   4   39.36    1.93
   1   5   4   39.88    2.18
   1   5   4   43.56    1.81
   0  -5  -4   13.23    0.64
   0  -5  -4   11.87    0.71
   0  -5  -4   12.86    0.64
   0  -5  -4   12.85    0.59
   0   5   4   13.62    0.66
   0   5   4   12.60    0.59
   0   5   4   13.73    0.71
   0   5   4   12.97    0.64
   1  -5  -4    6.20    0.43
   1  -5  -4    7.90    0.38
   1  -5  -4    8.14    0.44
  -1   5   4    7.83    0.37
  -1   5   4    7.37    0.40
  -1   5   4    7.71    0.41
  -1   5   4    7.33    0.45
   2  -5  -4   10.52    0.62
   2  -5  -4   12.15    0.56
  -2   5   4   12.12    0.69
  -2   5   4   12.37    0.55
  -2   5   4   12.12    0.62
  -2   5   4   12.02    0.60
   3  -5  -4   43.40    1.84
  -3   5   4   42.00    1.98
  -3   5   4   42.48    2.25
  -3   5   4   43.69    1.83
  -3   5   4   43.20    2.10
  -4   5   4   32.68    1.53
  -4   5   4   33.31    1.42
  -4   5   4   31.85    1.75
  -5   5   4   20.01    1.00
  -5   5   4   20.41    1.17
  -4  -4  -4   43.79    2.01
  -3  -4  -4   50.13    2.41
   3   4   4   55.79    2.30
  -2  -4  -4   84.29    3.47
  -2  -4  -4   80.48    3.72
  -2  -4  -4   80.82    3.98
   2   4   4   86.78    4.19
   2   4   4   77.38    3.48
  -1  -4  -4    1.26    0.14
  -1  -4  -4    1.27    0.14
  -1  -4  -4    1.16    0.14
  -1  -4  -4    1.18    0.15
   1   4   4    1.51    0.19
   1   4   4    1.41    0.16
   1   4   4    1.06    0.13
   0  -4  -4   23.17    1.11
   0  -4  -4   24.14    1.11
   0  -4  -4   22.31    1.21
   0  -4  -4   23.05    1.03
   0   4   4   24.55    1.17
   0   4   4   23.91    1.03
   0   4   4   24.92    1.25
   0   4   4   24.22    1.11
   1  -4  -4   32.30    1.35
   1  -4  -4   28.88    1.56
   1  -4  -4   31.71    1.48
  -1   4   4   31.35    1.34
  -1   4   4   32.57    1.64
  -1   4   4   31.79    1.46
  -1   4   4   32.01    1.55
   2  -4  -4   34.32    1.35
   2  -4  -4   27.23    1.47
  -2   4   4   32.34    1.54
  -2   4   4   32.10    1.46
  -2   4   4   33.05    1.34
  -2   4   4   32.43    1.65
  -2   4   4   28.36    1.48
   3  -4  -4   74.03    3.08
  -3   4   4   70.64    3.34
  -3   4   4   74.25    3.56
  -3   4   4   75.00    3.08
  -3   4   4   72.88    3.78
  -4   4   4    0.99    0.18
  -4   4   4    0.85    0.15
  -4   4   4    0.85    0.22
  -5   4   4    2.07    0.31
  -5   4   4    2.37    0.29
  -5  -3  -4    4.92    0.34
  -4  -3  -4    2.93    0.24
  -3  -3  -4   20.93    1.04
   3   3   4   24.19    1.05
  -2  -3  -4   40.99    1.87
  -2  -3  -4   40.09    1.85
  -2  -3  -4   38.99    1.76
   2   3   4   40.51    1.77
   2   3   4   42.16    2.09
  -1  -3  -4   95.96    4.38
  -1  -3  -4   97.67    4.38
  -1  -3  -4   98.03    4.06
  -1  -3  -4   93.17    4.69
   1   3   4   90.44    4.06
   1   3   4   99.90    4.38
   1   3   4  102.11    4.95
   0  -3  -4   43.72    1.87
   0  -3  -4   44.97    2.02
   0  -3  -4   40.78    2.18
   0   3   4   46.08    2.27
   0   3   4   44.79    2.02
   0   3   4   44.09    1.87
   0   3   4   44.21    2.15
   1  -3  -4   25.44    1.25
   1  -3  -4   24.38    1.20
   1  -3  -4   24.80    1.08
  -1   3   4   25.63    1.17
  -1   3   4   25.47    1.32
  -1   3   4   25.08    1.24
  -1   3   4   25.21    1.08
   2  -3  -4   23.86    1.01
   2  -3  -4   23.88    1.11
  -2   3   4   22.65    1.01
  -2   3   4   23.75    1.10
  -2   3   4   22.52    1.16
  -2   3   4   25.32    1.14
  -2   3   4   23.31    1.25
   3  -3  -4   68.75    2.85
  -3   3   4   68.43    3.09
  -3   3   4   69.57    3.30
  -3   3   4   70.51    2.85
  -3   3   4   67.78    3.50
  -3   3   4   62.61    3.12
  -4   3   4   63.79    3.41
  -4   3   4   65.94    3.01
  -4   3   4   67.72    2.77
  -5   3   4   32.21    1.54
  -5   3   4   33.37    1.77
  -5  -2  -4   21.07    1.00
  -4  -2  -4   42.13    1.92
  -3  -2  -4  113.33    5.01
   3   2   4  108.58    4.70
  -2  -2  -4   66.97    2.85
  -2  -2  -4   57.87    2.66
  -2  -2  -4   59.86    2.82
   2   2   4   61.84    3.19
   2   2   4   65.10    2.67
  -1  -2  -4    1.18    0.12
  -1  -2  -4    0.93    0.14
  -1  -2  -4    1.04    0.13
   1   2   4    1.41    0.15
   1   2   4    0.87    0.15
   1   2   4    0.99    0.14
   0  -2  -4   14.11    0.66
   0  -2  -4   13.15    0.71
   0  -2  -4   14.39    0.61
   0  -2  -4   13.33    0.66
   0   2   4   13.80    0.65
   0   2   4   13.76    0.74
   0   2   4   13.48    0.60
   0   2   4   13.16    0.68
   1  -2  -4   12.55    0.61
   1  -2  -4   11.56    0.53
   1  -2  -4   12.39    0.61
  -1   2   4   12.14    0.53
  -1   2   4   11.87    0.58
  -1   2   4   12.19    0.66
  -1   2   4   11.89    0.61
   2  -2  -4   54.32    2.35
   2  -2  -4   53.19    2.16
  -2   2   4   51.08    2.37
  -2   2   4   50.15    2.16
  -2   2   4   49.49    2.50
  -2   2   4   51.68    2.35
  -2   2   4   50.66    2.65
   3  -2  -4   80.95    3.33
  -3   2   4   80.30    3.32
  -3   2   4   79.90    3.61
  -3   2   4   79.98    3.62
  -3   2   4   77.04    4.08
  -3   2   4   79.29    3.85
  -4   2   4    5.23    0.39
  -4   2   4    5.31    0.27
  -4   2   4    4.64    0.32
  -5   2   4    0.50    0.22
  -5   2   4    0.47    0.21
  -6   2   4    0.39    0.29
  -6   2   4    0.60    0.29
  -5  -1  -4    1.25    0.16
  -4  -1  -4    0.58    0.11
  -3  -1  -4   31.99    1.40
  -3  -1  -4   30.07    1.43
   3   1   4   29.51    1.37
  -2  -1  -4   21.92    0.96
  -2  -1  -4   21.13    0.99
  -2  -1  -4   20.42    0.96
   2   1   4   19.95    0.95
   2   1   4   21.03    1.10
  -1  -1  -4    6.54    0.36
  -1  -1  -4    6.37    0.36
  -1  -1  -4    6.38    0.32
  -1  -1  -4    6.52    0.32
   1   1   4    7.17    0.35
   1   1   4    5.95    0.39
   1   1   4    5.45    0.32
   0  -1  -4   86.23    3.90
   0  -1  -4   78.85    3.64
   0  -1  -4   80.48    3.37
   0  -1  -4   80.87    3.64
   0   1   4   79.70    3.89
   0   1   4   72.60    4.10
   0   1   4   79.69    3.37
   0   1   4   82.73    3.64
   1  -1  -4  101.56    5.38
   1  -1  -4  126.16    5.76
   1  -1  -4  119.45    4.95
  -1   1   4  117.74    5.38
  -1   1   4  125.08    6.05
  -1   1   4  121.86    5.76
  -1   1   4  120.32    4.95
   2  -1  -4   31.27    1.68
   2  -1  -4   38.08    1.55
  -2   1   4   36.96    1.69
  -2   1   4   37.24    1.80
  -2   1   4   37.96    1.55
  -2   1   4   38.92    1.70
  -2   1   4   37.82    1.91
   3  -1  -4   49.27    2.07
  -3   1   4   49.80    2.27
  -3   1   4   49.80    2.07
  -3   1   4   49.90    2.26
  -3   1   4   49.03    2.55
  -3   1   4   49.07    2.40
  -4   1   4   64.59    2.90
  -4   1   4   61.73    3.26
  -5   1   4   77.44    3.58
  -5   1   4   77.72    4.01
  -6   1   4   18.67    1.03
  -4   0  -4   25.60    1.17
  -3   0  -4  187.73    8.33
  -3   0  -4  175.94    8.34
   3   0   4  191.51    7.75
  -2   0  -4   11.03    0.53
  -2   0  -4   10.27    0.54
  -2   0  -4   10.93    0.51
   2   0   4   11.08    0.60
   2   0   4   10.13    0.53
  -1   0  -4   23.83    1.09
  -1   0  -4   24.49    1.16
  -1   0  -4   25.75    1.15
   1   0   4   22.33    1.09
   1   0   4   27.28    1.31
   0   0  -4    0.49    0.10
   0   0  -4    0.48    0.10
   0   0  -4    0.60    0.12
   0   0  -4    0.35    0.10
   0   0   4    0.53    0.11
   0   0   4    0.38    0.06
   0   0   4    0.37    0.09
   0   0   4    0.43    0.11
   1   0  -4    5.93    0.31
   1   0  -4    6.09    0.32
   1   0  -4    5.94    0.28
  -1   0   4    5.89    0.36
  -1   0   4    5.90    0.32
  -1   0   4    5.65    0.29
  -1   0   4    5.73    0.34
   2   0  -4   80.61    3.31
  -2   0   4   80.33    4.06
  -2   0   4   80.41    3.60
  -2   0   4   76.64    3.31
  -2   0   4   78.87    3.85
  -2   0   4   79.71    3.62
  -3   0   4   47.74    2.54
  -3   0   4   49.03    2.40
  -3   0   4   50.01    2.28
  -3   0   4   49.87    2.25
  -3   0   4   50.28    2.06
  -4   0   4   26.24    1.41
  -4   0   4   27.11    1.30
  -5   0   4    0.22    0.19
  -5   0   4   -0.61    0.27
  -6   0   4    0.51    0.30
  -3   1  -4   31.76    1.40
  -2   1  -4   19.57    0.90
  -2   1  -4   20.24    0.92
  -2   1  -4   19.48    0.92
   2  -1   4   20.28    0.90
  -1   1  -4    6.29    0.33
  -1   1  -4    6.02    0.33
  -1   1  -4    6.89    0.35
   1  -1   4    6.72    0.39
   1  -1   4    6.49    0.34
   0   1  -4   67.74    3.75
   0   1  -4   82.46    3.51
   0   1  -4   80.06    3.24
   0   1  -4   78.78    3.51
   0  -1   4   75.41    3.50
   0  -1   4   74.21    3.96
   0  -1   4   81.85    3.24
   1   1  -4  115.61    5.74
   1   1  -4  131.70    4.95
   1   1  -4  118.40    5.35
  -1  -1   4  118.12    4.94
  -1  -1   4  120.86    5.75
  -1  -1   4  118.93    5.38
  -1  -1   4  106.19    6.05
  -2  -1   4   39.66    1.80
  -2  -1   4   36.96    1.88
  -2  -1   4   37.83    1.99
  -2  -1   4   39.29    1.76
  -3  -1   4   49.68    2.28
  -3  -1   4   48.79    2.37
  -3  -1   4   47.92    2.22
  -3  -1   4   48.17    2.50
  -4  -1   4   62.76    3.21
  -4  -1   4   63.05    3.03
  -4  -1   4   61.45    2.91
  -5  -1   4   77.22    3.65
  -5  -1   4   64.21    3.29
  -6  -1   4   23.61    1.19
  -3   2  -4  109.44    4.59
  -3   2  -4  112.60    4.92
  -3   2  -4  105.49    4.93
  -2   2  -4   60.73    2.60
  -2   2  -4   63.80    2.79
  -2   2  -4   59.73    2.60
  -2   2  -4   60.85    2.77
  -1   2  -4    0.89    0.13
  -1   2  -4    1.32    0.14
  -1   2  -4    0.92    0.11
  -1   2  -4    1.23    0.13
   1  -2   4    1.34    0.15
   0   2  -4   13.51    0.70
   0   2  -4   14.56    0.66
   0   2  -4   13.92    0.61
   0   2  -4   14.06    0.61
   0   2  -4   12.77    0.65
   0  -2   4   12.82    0.65
   0  -2   4   14.81    0.76
   1   2  -4   11.26    0.59
   1   2  -4   11.88    0.51
   1   2  -4   11.48    0.56
   1   2  -4   11.92    0.51
  -1  -2   4   12.07    0.60
  -1  -2   4   12.48    0.63
  -1  -2   4   11.41    0.67
   2   2  -4   51.80    2.27
  -2  -2   4   50.02    2.57
  -2  -2   4   45.61    2.29
  -2  -2   4   51.53    2.44
  -2  -2   4   49.46    2.27
   3   2  -4   79.58    3.45
  -3  -2   4   76.52    3.70
  -3  -2   4   71.13    3.50
  -3  -2   4   77.95    3.90
  -3  -2   4   75.76    3.46
  -4  -2   4    5.27    0.31
  -4  -2   4    5.13    0.34
  -4  -2   4    4.51    0.39
  -5  -2   4    0.45    0.23
  -6  -2   4    0.92    0.27
  -3   3  -4   19.70    0.89
  -3   3  -4   17.58    0.90
  -3   3  -4   20.46    0.88
  -2   3  -4   37.89    1.79
  -2   3  -4   38.16    1.69
  -2   3  -4   42.52    1.70
  -2   3  -4   38.85    1.80
  -1   3  -4   97.45    4.07
  -1   3  -4   96.54    4.39
  -1   3  -4   92.25    4.07
  -1   3  -4  102.47    4.40
   0   3  -4   47.57    2.20
   0   3  -4   44.33    2.06
   0   3  -4   43.01    1.90
   0   3  -4   46.63    2.20
   0   3  -4   45.45    1.90
   0   3  -4   43.81    2.06
   0  -3   4   44.60    2.06
   0  -3   4   45.65    2.33
   1   3  -4   25.56    1.08
   1   3  -4   24.44    1.18
   1   3  -4   24.87    1.08
   1   3  -4   24.97    1.25
  -1  -3   4   26.19    1.28
  -1  -3   4   27.15    1.20
  -1  -3   4   25.43    1.34
   2   3  -4   22.69    0.97
   2   3  -4   22.52    1.13
   2   3  -4   23.36    1.08
   2   3  -4   23.08    0.97
  -2  -3   4   23.39    1.19
  -2  -3   4   22.55    1.24
  -2  -3   4   24.81    1.11
  -3  -3   4   71.16    3.11
  -3  -3   4   65.29    3.48
  -3  -3   4   66.38    3.30
  -4  -3   4   67.80    3.07
  -4  -3   4   64.75    3.25
  -4  -3   4   67.14    3.42
  -5  -3   4   33.72    1.61
  -4   4  -4   46.03    2.10
  -3   4  -4   54.63    2.49
  -2   4  -4   79.10    3.66
  -2   4  -4   77.60    3.41
  -2   4  -4   86.25    3.67
  -1   4  -4    1.13    0.14
  -1   4  -4    0.97    0.13
  -1   4  -4    1.50    0.15
  -1   4  -4    1.07    0.12
  -1   4  -4    0.92    0.13
   0   4  -4   25.19    1.18
   0   4  -4   23.50    1.03
   0   4  -4   23.97    1.11
   0   4  -4   23.07    1.11
   0  -4   4   24.59    1.11
   0  -4   4   23.41    1.03
   0  -4   4   22.96    1.25
   1   4  -4   31.47    1.37
   1   4  -4   32.01    1.59
   1   4  -4   33.13    1.50
  -1  -4   4   32.92    1.69
  -1  -4   4   33.66    1.51
  -1  -4   4   32.88    1.38
  -1  -4   4   31.40    1.62
   2   4  -4   32.97    1.54
   2   4  -4   32.07    1.40
   2   4  -4   31.92    1.63
  -2  -4   4   34.37    1.56
  -2  -4   4   34.99    1.68
  -2  -4   4   33.85    1.74
  -3  -4   4   73.40    3.09
  -3  -4   4   67.76    3.32
  -3  -4   4   60.42    3.45
  -4  -4   4    1.18    0.20
  -4  -4   4    1.00    0.23
  -5  -4   4    2.61    0.35
  -5  -4   4    2.10    0.26
  -4   5  -4    0.85    0.17
  -3   5  -4   10.67    0.54
  -2   5  -4   28.68    1.29
  -2   5  -4   29.85    1.36
  -1   5  -4   46.64    2.15
  -1   5  -4   43.99    2.14
  -1   5  -4   41.91    2.00
  -1   5  -4   43.10    1.87
  -1   5  -4   43.88    2.01
   1  -5   4   43.25    1.87
   0   5  -4   12.63    0.60
   0   5  -4   13.37    0.68
   0   5  -4   13.51    0.66
   0  -5   4   13.78    0.65
   0  -5   4   13.33    0.60
   1   5  -4    7.68    0.36
   1   5  -4    7.95    0.41
   1   5  -4    7.92    0.42
  -1  -5   4    7.68    0.41
  -1  -5   4    7.39    0.36
  -1  -5   4    6.99    0.45
  -1  -5   4    7.55    0.44
   2   5  -4   11.53    0.52
   2   5  -4   12.00    0.59
   2   5  -4   11.65    0.60
  -2  -5   4   11.82    0.68
  -2  -5   4   11.42    0.52
  -2  -5   4   12.23    0.60
  -2  -5   4   12.02    0.64
  -3  -5   4   42.05    1.95
  -3  -5   4   41.47    2.12
  -3  -5   4   42.50    2.16
  -4  -5   4   27.69    1.52
  -4  -5   4   30.30    1.39
  -5  -5   4   18.82    0.90
  -5  -5   4   16.04    1.02
  -4   6  -4   14.46    0.73
  -3   6  -4   26.67    1.25
  -2   6  -4   15.24    0.76
  -2   6  -4   15.74    0.79
  -1   6  -4    3.72    0.26
  -1   6  -4    4.16    0.27
  -1   6  -4    3.97    0.28
   0   6  -4    0.21    0.12
   0   6  -4    0.24    0.12
   0   6  -4    0.25    0.15
   0  -6   4    0.32    0.12
   0  -6   4    0.40    0.11
   1   6  -4    2.89    0.19
   1   6  -4    2.78    0.25
   1   6  -4    3.03    0.22
  -1  -6   4    2.15    0.28
  -1  -6   4    2.86    0.20
  -1  -6   4    3.35    0.25
   2   6  -4   10.13    0.46
   2   6  -4   10.31    0.53
   2   6  -4   10.70    0.55
  -2  -6   4    8.85    0.61
  -2  -6   4   10.63    0.47
  -2  -6   4   10.59    0.56
  -2  -6   4    9.97    0.54
  -3  -6   4   15.13    0.75
  -3  -6   4   14.33    0.84
  -4  -6   4    0.60    0.20
  -4  -6   4    0.38    0.29
  -5  -6   4    0.10    0.23
  -5  -6   4   -0.51    0.35
  -4   7  -4    0.50    0.22
  -3   7  -4    4.31    0.34
  -2   7  -4    8.08    0.49
  -2   7  -4    9.10    0.49
  -1   7  -4    0.21    0.15
  -1   7  -4    0.37    0.15
  -1   7  -4    0.46    0.18
   0   7  -4    2.13    0.23
   0   7  -4    2.12    0.24
   0   7  -4    1.89    0.20
   1   7  -4    2.39    0.23
   1   7  -4    2.23    0.25
   1   7  -4    2.13    0.19
  -1  -7   4    2.23    0.20
  -1  -7   4    2.13    0.26
  -1  -7   4    2.56    0.25
   2   7  -4    2.60    0.20
   2   7  -4    2.61    0.22
  -2  -7   4    2.85    0.21
  -2  -7   4    2.20    0.29
  -2  -7   4    2.85    0.27
  -3  -7   4    8.20    0.46
  -3  -7   4    6.93    0.54
  -4  -7   4    5.63    0.53
  -4  -7   4    7.27    0.44
  -5  -7   4   13.50    0.69
  -5  -7   4   11.01    0.80
  -3   8  -4    9.40    0.54
  -2   8  -4    0.77    0.22
  -2   8  -4    0.85    0.18
  -1   8  -4   10.58    0.59
  -1   8  -4   11.10    0.59
   0   8  -4    5.05    0.35
   0   8  -4    5.50    0.37
   0   8  -4    5.13    0.33
   1   8  -4    0.88    0.17
   1   8  -4    0.56    0.15
   1   8  -4    0.79    0.20
  -1  -8   4    0.59    0.22
   2   8  -4    2.27    0.22
  -2  -8   4    1.53    0.30
  -2  -8   4    2.48    0.26
  -3  -8   4    0.87    0.20
  -3  -8   4    0.47    0.29
  -4  -8   4    2.37    0.29
  -4  -8   4    1.74    0.37
  -3   9  -4    1.78    0.28
  -2   9  -4    3.17    0.31
  -2   9  -4    2.75    0.33
  -1   9  -4    0.70    0.20
  -1   9  -4    0.83    0.23
   0   9  -4    0.47    0.22
   0   9  -4    0.45    0.18
   1   9  -4    0.40    0.22
   1   9  -4    0.57    0.18
   1   9  -4    0.39    0.15
  -1  -9   4    0.65    0.25
  -2  -9   4    0.54    0.29
  -3  -9   4    1.56    0.36
  -3  -9   4    2.05    0.27
  -4  -9   4    2.97    0.42
  -4  -9   4    3.41    0.36
  -2  10  -4    2.02    0.27
  -2  10  -4    1.86    0.30
  -1  10  -4    2.42    0.30
  -1  10  -4    2.47    0.31
   0  10  -4    0.66    0.26
   0  10  -4    0.42    0.20
   1  10  -4    0.09    0.19
  -2 -10   4    0.08    0.32
  -3 -10   4   -0.36    0.34
  -1  11  -4    1.27    0.25
  -1  11  -4    1.09    0.30
   0  11  -4    0.53    0.22
   1  11  -4    0.21    0.21
  -2 -11   4    0.27    0.35
  -1 -11  -5    0.36    0.31
  -1  11   5    1.61    0.25
  -1  11   5    1.51    0.28
  -2  11   5    1.36    0.26
  -2  11   5    1.24    0.31
  -2 -10  -5    0.91    0.33
  -2 -10  -5    0.99    0.28
  -1 -10  -5    3.25    0.41
   0 -10  -5    1.09    0.28
  -1  10   5    4.23    0.35
  -1  10   5    4.16    0.39
  -2  10   5    5.10    0.45
  -2  10   5    5.25    0.39
  -2  10   5    5.87    0.44
  -3  10   5    4.17    0.45
  -3  10   5    4.35    0.38
  -3  10   5    4.49    0.42
  -2  -9  -5    0.29    0.22
  -2  -9  -5    0.10    0.26
  -1  -9  -5    2.68    0.33
  -1  -9  -5    1.92    0.33
   0  -9  -5    5.13    0.41
   0   9   5    4.46    0.33
   0   9   5    4.35    0.36
  -1   9   5    1.28    0.21
  -1   9   5    1.29    0.24
  -1   9   5    1.71    0.25
  -2   9   5    0.06    0.23
  -2   9   5    0.28    0.23
  -2   9   5    0.17    0.20
  -3   9   5    0.40    0.22
  -3   9   5    0.36    0.27
  -3   9   5    0.70    0.25
  -3  -8  -5    2.34    0.31
  -3  -8  -5    2.09    0.27
  -2  -8  -5    3.85    0.34
  -2  -8  -5    3.76    0.39
  -1  -8  -5    7.42    0.55
  -1  -8  -5    8.57    0.50
   0  -8  -5   13.66    0.76
   0  -8  -5   12.80    0.70
   0  -8  -5   13.30    0.71
   0   8   5   13.23    0.76
   0   8   5   13.66    0.70
  -1   8   5   26.87    1.26
  -1   8   5   25.79    1.31
  -1   8   5   25.42    1.39
  -2   8   5   16.05    0.93
  -2   8   5   16.23    0.85
  -2   8   5   15.87    0.81
  -3   8   5   10.47    0.58
  -3   8   5   10.02    0.57
  -3   8   5   10.16    0.67
  -4   8   5    8.73    0.64
  -4   8   5    8.86    0.54
  -4   8   5    9.13    0.55
  -3  -7  -5    3.61    0.35
  -3  -7  -5    3.57    0.32
  -2  -7  -5    0.68    0.23
  -2  -7  -5    0.77    0.19
  -1  -7  -5   10.35    0.64
  -1  -7  -5   11.51    0.59
   1   7   5   10.79    0.63
   0  -7  -5   17.33    0.86
   0  -7  -5   17.23    0.94
   0  -7  -5   17.11    0.86
   0   7   5   17.35    0.85
   0   7   5   17.62    0.87
   0   7   5   16.12    0.78
   0   7   5   17.22    0.94
   1  -7  -5    4.79    0.39
  -1   7   5    6.24    0.39
  -1   7   5    6.12    0.37
  -1   7   5    5.76    0.33
  -1   7   5    5.97    0.41
  -2   7   5    0.28    0.18
  -2   7   5    0.36    0.17
  -2   7   5    0.44    0.18
  -3   7   5    0.66    0.20
  -3   7   5    0.65    0.24
  -3   7   5    0.57    0.19
  -4   7   5    0.95    0.29
  -4   7   5    0.95    0.21
  -4   7   5    0.94    0.24
  -4  -6  -5    2.06    0.26
  -3  -6  -5    4.52    0.35
  -3  -6  -5    4.51    0.33
  -2  -6  -5    0.25    0.17
  -2  -6  -5    0.36    0.18
  -1  -6  -5    7.78    0.48
  -1  -6  -5    7.59    0.44
   1   6   5    7.22    0.47
   1   6   5    7.89    0.42
   0  -6  -5    9.14    0.50
   0  -6  -5    9.18    0.56
   0   6   5    9.42    0.54
   0   6   5    8.96    0.49
   0   6   5    9.14    0.49
   0   6   5    8.54    0.45
   1  -6  -5   35.77    1.61
   1  -6  -5   28.41    1.68
  -1   6   5   34.38    1.77
  -1   6   5   34.86    1.46
  -1   6   5   34.72    1.67
  -1   6   5   34.68    1.58
  -2   6   5   66.68    3.16
  -2   6   5   70.73    3.38
  -2   6   5   70.27    2.92
  -2   6   5   69.06    3.57
  -3   6   5   38.91    1.61
  -3   6   5   36.58    1.98
  -3   6   5   37.44    1.84
  -3   6   5   35.81    1.74
  -4   6   5   17.30    0.88
  -4   6   5   17.09    1.02
  -4   6   5   18.29    0.91
  -5   6   5    6.91    0.47
  -5   6   5    6.43    0.52
  -4  -5  -5    0.61    0.20
  -3  -5  -5    0.38    0.16
  -3  -5  -5    0.18    0.17
  -2  -5  -5    3.78    0.29
  -2  -5  -5    3.73    0.27
   2   5   5    3.57    0.31
   2   5   5    2.97    0.30
  -1  -5  -5   14.80    0.78
  -1  -5  -5   15.43    0.73
   1   5   5   13.36    0.81
   1   5   5   15.22    0.69
   0  -5  -5   54.17    2.50
   0  -5  -5   53.96    2.31
   0  -5  -5   53.52    2.70
   0   5   5   54.78    2.65
   0   5   5   54.49    2.31
   0   5   5   54.82    2.49
   0   5   5   55.13    2.80
   1  -5  -5   36.50    1.57
   1  -5  -5   36.20    1.72
  -1   5   5   36.42    1.56
  -1   5   5   36.53    1.69
  -1   5   5   36.90    1.80
  -1   5   5   36.65    1.90
   2  -5  -5   24.53    1.07
  -2   5   5   24.32    1.21
  -2   5   5   24.27    1.06
  -2   5   5   24.32    1.30
  -2   5   5   24.00    1.15
   3  -5  -5    1.91    0.20
  -3   5   5    1.64    0.21
  -3   5   5    1.86    0.25
  -3   5   5    1.62    0.17
  -3   5   5    1.70    0.20
  -4   5   5    0.36    0.21
  -4   5   5    0.22    0.15
  -4   5   5    0.50    0.19
  -4   5   5    0.33    0.15
  -5   5   5    5.18    0.48
  -5   5   5    5.56    0.41
  -4  -4  -5    1.48    0.21
  -3  -4  -5    6.43    0.37
  -2  -4  -5    6.35    0.37
  -2  -4  -5    6.25    0.36
   2   4   5    5.82    0.41
   2   4   5    6.44    0.38
  -1  -4  -5    7.59    0.42
  -1  -4  -5    8.08    0.42
  -1  -4  -5    7.73    0.41
  -1  -4  -5    7.60    0.45
  -1  -4  -5    7.55    0.43
   1   4   5    7.66    0.41
   1   4   5    8.07    0.48
   1   4   5    8.06    0.42
   0  -4  -5    0.20    0.11
   0  -4  -5    0.25    0.15
   0  -4  -5    0.10    0.12
   0   4   5    0.09    0.09
   0   4   5    0.03    0.10
   0   4   5    0.24    0.12
   0   4   5    0.07    0.12
   1  -4  -5   40.62    1.70
   1  -4  -5   37.83    1.87
  -1   4   5   40.30    1.96
  -1   4   5   39.98    2.07
  -1   4   5   40.70    1.84
  -1   4   5   40.20    1.70
   2  -4  -5  173.63    6.98
   2  -4  -5  154.28    7.58
  -2   4   5  164.29    8.53
  -2   4   5  173.41    7.57
  -2   4   5  169.31    8.10
  -2   4   5  169.44    6.97
   3  -4  -5  113.18    4.71
  -3   4   5  114.42    5.46
  -3   4   5  110.96    5.11
  -3   4   5  112.21    4.71
  -3   4   5  112.20    5.77
  -4   4   5   20.11    0.98
  -4   4   5   19.24    0.96
  -4   4   5   19.07    1.08
  -5   4   5   15.61    0.93
  -5   4   5   15.55    0.80
  -4  -3  -5    1.91    0.24
  -3  -3  -5   -0.02    0.14
   3   3   5    0.46    0.19
  -2  -3  -5   11.67    0.59
  -2  -3  -5   11.53    0.61
   2   3   5   12.29    0.68
   2   3   5   12.84    0.61
  -1  -3  -5   39.31    1.78
  -1  -3  -5   37.22    1.68
  -1  -3  -5   40.53    1.80
  -1  -3  -5   38.15    1.78
  -1  -3  -5   38.31    1.90
   1   3   5   35.84    1.68
   1   3   5   39.15    1.79
   1   3   5   41.22    2.03
   0  -3  -5  109.86    5.07
   0  -3  -5  115.39    4.69
   0  -3  -5  112.32    5.45
   0   3   5  109.74    4.68
   0   3   5  112.36    5.71
   0   3   5  113.96    5.07
   0   3   5  109.40    5.42
   1  -3  -5   59.98    2.62
   1  -3  -5   64.68    2.87
  -1   3   5   61.49    2.84
  -1   3   5   62.89    3.20
  -1   3   5   62.05    3.03
  -1   3   5   62.44    2.62
   2  -3  -5   41.79    1.74
   2  -3  -5   37.86    1.90
  -2   3   5   40.93    2.01
  -2   3   5   40.69    1.74
  -2   3   5   42.10    2.13
  -2   3   5   42.91    1.89
   3  -3  -5    2.40    0.18
  -3   3   5    2.09    0.19
  -3   3   5    2.43    0.23
  -3   3   5    2.25    0.17
  -3   3   5    2.21    0.24
  -4   3   5    0.14    0.19
  -4   3   5    0.38    0.13
  -4   3   5    0.26    0.16
  -5   3   5   11.72    0.73
  -5   3   5   11.66    0.64
  -4  -2  -5    9.43    0.49
  -3  -2  -5   14.60    0.73
   3   2   5   15.86    0.77
  -2  -2  -5    3.73    0.32
  -2  -2  -5    3.52    0.31
  -2  -2  -5    3.78    0.25
   2   2   5    4.26    0.31
   2   2   5    4.63    0.30
  -1  -2  -5   15.12    0.69
  -1  -2  -5   14.65    0.73
  -1  -2  -5   14.10    0.72
  -1  -2  -5   13.24    0.68
   1   2   5   13.70    0.68
   1   2   5   15.18    0.70
   1   2   5   14.10    0.80
   0  -2  -5   14.21    0.71
   0  -2  -5   13.35    0.67
   0  -2  -5   14.23    0.62
   0   2   5   13.73    0.66
   0   2   5   12.21    0.73
   0   2   5   13.50    0.61
   0   2   5   12.42    0.67
   1  -2  -5  126.53    6.84
   1  -2  -5  153.58    6.40
   1  -2  -5  139.09    5.88
  -1   2   5  146.48    7.19
  -1   2   5  140.69    5.88
  -1   2   5  143.51    6.83
  -1   2   5  138.25    6.38
   2  -2  -5  254.24   10.58
   2  -2  -5  232.48    9.74
  -2   2   5  236.28   11.91
  -2   2   5  232.48   11.35
  -2   2   5  235.54   10.57
  -2   2   5  214.03   10.59
  -2   2   5  235.53    9.74
   3  -2  -5  159.97    6.64
  -3   2   5  160.54    7.22
  -3   2   5  156.44    8.13
  -3   2   5  163.49    6.64
  -3   2   5  157.19    7.72
  -4   2   5   39.10    1.84
  -4   2   5   38.76    2.07
  -4   2   5   40.57    1.93
  -5   2   5   11.89    0.67
  -5   2   5   12.30    0.75
  -6   2   5    3.31    0.41
  -4  -1  -5   14.75    0.71
  -3  -1  -5   27.59    1.19
   3   1   5   23.58    1.19
  -2  -1  -5   19.26    0.86
  -2  -1  -5   17.56    0.83
  -2  -1  -5   17.24    0.83
  -2  -1  -5   16.62    0.83
   2   1   5   17.02    0.83
   2   1   5   18.04    0.96
  -1  -1  -5  118.15    5.54
  -1  -1  -5  123.00    5.93
  -1  -1  -5  121.08    5.56
  -1  -1  -5  126.97    5.15
   1   1   5  123.48    5.15
   0  -1  -5  124.23    5.54
   0  -1  -5  113.06    5.53
   0  -1  -5  133.42    5.93
   0  -1  -5  115.83    5.11
   0   1   5  116.82    5.11
   0   1   5  119.86    6.24
   0   1   5  130.40    5.91
   0   1   5  122.64    5.54
   1  -1  -5   53.40    2.12
   1  -1  -5   43.65    2.31
   1  -1  -5   52.26    2.46
  -1   1   5   50.90    2.46
  -1   1   5   51.00    2.31
  -1   1   5   49.26    2.12
  -1   1   5   52.14    2.60
   2  -1  -5    0.55    0.11
   2  -1  -5    0.20    0.07
  -2   1   5    0.20    0.11
  -2   1   5    0.11    0.10
  -2   1   5    0.23    0.07
  -2   1   5    0.14    0.12
  -2   1   5    0.30    0.13
   3  -1  -5    2.90    0.16
  -3   1   5    2.42    0.20
  -3   1   5    2.60    0.22
  -3   1   5    2.85    0.26
  -3   1   5    2.91    0.16
  -3   1   5    2.24    0.24
  -4   1   5    4.83    0.37
  -4   1   5    5.42    0.38
  -4   1   5    5.02    0.30
  -5   1   5   14.89    0.84
  -5   1   5   15.69    0.88
  -6   1   5   10.87    0.74
  -5   0  -5    2.60    0.27
  -4   0  -5   23.76    1.11
  -3   0  -5   22.54    1.02
  -3   0  -5   22.92    1.02
   3   0   5   20.11    1.03
  -2   0  -5    0.41    0.11
  -2   0  -5    0.61    0.13
  -2   0  -5    0.34    0.16
   2   0   5    0.60    0.14
   2   0   5    0.10    0.15
  -1   0  -5   23.05    1.03
  -1   0  -5   23.68    1.08
  -1   0  -5   21.20    1.07
   1   0   5   22.81    1.23
   1   0   5   23.30    1.02
   0   0  -5   48.52    2.06
   0   0  -5   49.94    2.22
   0   0  -5   48.14    2.21
   0   0  -5   47.79    2.36
   0   0   5   48.80    2.50
   0   0   5   48.22    2.21
   0   0   5   45.82    2.05
   1   0  -5  341.44   15.32
   1   0  -5  365.40   16.45
   1   0  -5  360.55   16.46
   1   0  -5  325.09   14.12
  -1   0   5  328.98   14.14
  -1   0   5  333.82   16.45
  -1   0   5  326.96   17.25
  -1   0   5  336.46   15.33
   2   0  -5  229.21   10.31
   2   0  -5  228.37    9.50
   2   0  -5  223.67   11.05
  -2   0   5  224.70   10.34
  -2   0   5  240.91   11.63
  -2   0   5  217.18    9.51
  -2   0   5  231.26   10.32
  -2   0   5  234.58   11.09
   3   0  -5  153.75    6.98
   3   0  -5  154.07    6.42
  -3   0   5  154.64    7.03
  -3   0   5  155.24    6.43
  -3   0   5  154.21    7.49
  -3   0   5  156.99    6.99
  -3   0   5  154.23    7.88
  -4   0   5   62.85    3.01
  -4   0   5   61.17    3.19
  -4   0   5   61.44    2.88
  -5   0   5    7.52    0.49
  -5   0   5    6.27    0.55
  -6   0   5    4.09    0.49
  -4   1  -5   14.98    0.72
  -3   1  -5   25.50    1.21
  -3   1  -5   27.70    1.21
  -3   1  -5   24.55    1.18
  -2   1  -5   15.75    0.75
  -2   1  -5   14.89    0.76
  -2   1  -5   15.27    0.75
   2  -1   5   17.28    0.87
   2  -1   5   15.59    0.75
  -1   1  -5  110.68    4.90
  -1   1  -5  127.52    5.30
  -1   1  -5  113.04    5.29
   1  -1   5  105.94    4.90
   1  -1   5  127.29    5.98
   0   1  -5  124.47    5.40
   0   1  -5  113.88    4.66
   0   1  -5  105.28    5.04
   0   1  -5  118.29    5.05
   0  -1   5  111.52    4.66
   0  -1   5  109.97    5.69
   0  -1   5   94.63    5.03
   1   1  -5   55.13    2.53
   1   1  -5   57.19    2.19
   1   1  -5   53.54    2.37
  -1  -1   5   47.75    2.68
  -1  -1   5   54.20    2.39
  -1  -1   5   45.34    2.18
  -1  -1   5   49.06    2.54
   2   1  -5    0.15    0.05
   2   1  -5    0.09    0.06
   2   1  -5    0.12    0.10
  -2  -1   5    0.14    0.10
  -2  -1   5    0.09    0.06
  -2  -1   5    0.44    0.13
  -2  -1   5    0.15    0.15
   3   1  -5    2.51    0.19
  -3  -1   5    2.62    0.28
  -3  -1   5    2.63    0.22
  -3  -1   5    2.51    0.21
  -3  -1   5    3.00    0.26
  -4  -1   5    4.99    0.31
  -4  -1   5    4.95    0.45
  -4  -1   5    5.19    0.37
  -5  -1   5   13.38    0.83
  -5  -1   5   15.17    0.83
  -6  -1   5   10.02    0.66
  -4   2  -5    8.38    0.45
  -3   2  -5   14.71    0.71
  -2   2  -5    4.02    0.27
  -2   2  -5    3.60    0.27
  -2   2  -5    3.83    0.25
  -1   2  -5   13.84    0.64
  -1   2  -5   13.75    0.67
  -1   2  -5   13.99    0.64
  -1   2  -5   12.80    0.69
   1  -2   5   15.20    0.78
   0   2  -5   11.11    0.64
   0   2  -5   12.67    0.60
   0   2  -5   12.91    0.56
   1   2  -5  142.24    6.79
   1   2  -5  144.11    5.84
   1   2  -5  131.26    5.84
   1   2  -5  140.56    6.34
  -1  -2   5  149.70    6.81
  -1  -2   5  143.94    7.17
  -1  -2   5  129.73    6.36
   2   2  -5  221.05    9.23
   2   2  -5  228.08   10.74
   2   2  -5  229.98    9.22
   2   2  -5  227.97   10.02
  -2  -2   5  201.26   11.31
  -2  -2   5  214.59   10.05
  -2  -2   5  232.64   10.77
  -3  -2   5  158.93    7.93
  -3  -2   5  151.24    7.07
  -3  -2   5  156.59    7.54
  -4  -2   5   34.31    1.81
  -4  -2   5   39.41    1.88
  -4  -2   5   40.15    1.99
  -5  -2   5   10.84    0.70
  -5  -2   5   12.55    0.64
  -4   3  -5    1.31    0.19
  -3   3  -5   -0.26    0.15
  -2   3  -5   11.51    0.53
  -2   3  -5    9.38    0.55
  -2   3  -5   11.18    0.53
  -1   3  -5   41.53    1.91
  -1   3  -5   39.51    1.79
  -1   3  -5   38.83    1.67
  -1   3  -5   39.18    1.80
  -1   3  -5   36.07    1.67
   1  -3   5   38.97    2.04
   0   3  -5  109.52    5.41
   0   3  -5  111.33    5.05
   0   3  -5  114.86    4.66
   0   3  -5  113.81    5.41
   0   3  -5  106.94    5.05
   0   3  -5  105.92    4.66
   0  -3   5  118.41    5.71
   1   3  -5   61.27    2.58
   1   3  -5   58.32    2.80
   1   3  -5   62.01    3.00
   1   3  -5   61.65    2.58
  -1  -3   5   64.99    2.83
  -1  -3   5   56.45    3.18
  -1  -3   5   66.36    3.01
   2   3  -5   42.10    1.91
   2   3  -5   40.44    1.73
   2   3  -5   40.15    2.02
   2   3  -5   40.89    1.75
  -2  -3   5   42.54    2.07
  -2  -3   5   43.00    2.18
  -2  -3   5   41.76    1.94
  -3  -3   5    2.29    0.27
  -3  -3   5    2.47    0.30
  -3  -3   5    2.17    0.26
  -4  -3   5    0.42    0.19
  -4  -3   5    0.35    0.22
  -4  -3   5    0.29    0.17
  -5  -3   5   12.64    0.71
  -5  -3   5   13.19    0.74
  -4   4  -5    2.06    0.26
  -3   4  -5    7.39    0.43
  -2   4  -5    7.20    0.40
  -2   4  -5    6.36    0.39
  -1   4  -5    7.29    0.40
  -1   4  -5    7.24    0.40
  -1   4  -5    7.94    0.42
  -1   4  -5    7.80    0.40
   0   4  -5    0.13    0.10
   0   4  -5    0.12    0.12
   0   4  -5    0.21    0.10
   0   4  -5    0.04    0.11
   0   4  -5    0.35    0.12
   0  -4   5    0.18    0.13
   0  -4   5    0.04    0.09
   1   4  -5   40.25    2.02
   1   4  -5   41.58    1.74
   1   4  -5   39.21    1.74
   1   4  -5   39.75    1.90
  -1  -4   5   41.54    2.15
  -1  -4   5   43.25    2.04
  -1  -4   5   43.43    1.91
   2   4  -5  171.85    7.15
   2   4  -5  163.36    8.32
   2   4  -5  166.53    7.14
   2   4  -5  175.85    7.77
  -2  -4   5  178.02    7.79
  -2  -4   5  188.19    8.36
  -2  -4   5  160.25    8.76
  -3  -4   5  113.20    4.98
  -3  -4   5  107.50    5.34
  -3  -4   5  106.51    5.59
  -4  -4   5   18.88    0.94
  -4  -4   5   18.04    1.00
  -5  -4   5   15.95    0.90
  -5  -4   5   16.12    0.86
  -4   5  -5    0.87    0.19
  -3   5  -5    0.48    0.17
  -2   5  -5    4.01    0.29
  -1   5  -5   15.45    0.79
  -1   5  -5   14.78    0.70
  -1   5  -5   15.33    0.74
   0   5  -5   53.71    2.27
   0   5  -5   52.84    2.27
   0   5  -5   52.98    2.46
   0   5  -5   55.12    2.62
   0  -5   5   55.13    2.45
   0  -5   5   51.89    2.77
   1   5  -5   36.86    1.85
   1   5  -5   37.02    1.60
   1   5  -5   37.39    1.75
   1   5  -5   36.81    1.60
  -1  -5   5   39.44    1.75
  -1  -5   5   36.33    1.96
  -1  -5   5   39.90    1.87
   2   5  -5   24.23    1.05
   2   5  -5   24.87    1.17
   2   5  -5   23.51    1.05
   2   5  -5   23.22    1.22
  -2  -5   5   25.54    1.27
  -2  -5   5   25.34    1.19
  -2  -5   5   25.68    1.31
  -3  -5   5    1.78    0.21
  -3  -5   5    2.21    0.27
  -3  -5   5    1.97    0.28
  -4  -5   5    0.32    0.28
  -4  -5   5    0.73    0.22
  -5  -5   5    5.23    0.42
  -5  -5   5    4.25    0.51
  -4   6  -5    2.83    0.30
  -3   6  -5    4.96    0.34
  -2   6  -5    0.21    0.17
  -2   6  -5   -0.15    0.15
  -1   6  -5    7.82    0.45
  -1   6  -5    8.59    0.47
  -1   6  -5    7.61    0.42
   0   6  -5    8.96    0.49
   0   6  -5    8.78    0.44
   0   6  -5    8.76    0.49
   0  -6   5    8.96    0.44
   1   6  -5   36.15    1.69
   1   6  -5   35.05    1.79
   1   6  -5   35.03    1.55
  -1  -6   5   39.13    1.82
  -1  -6   5   34.76    1.89
  -1  -6   5   37.75    1.70
  -1  -6   5   36.42    1.55
   2   6  -5   66.51    2.92
   2   6  -5   66.45    3.39
   2   6  -5   71.80    3.19
  -2  -6   5   68.78    3.57
  -2  -6   5   71.37    2.92
  -2  -6   5   68.11    3.19
  -2  -6   5   74.53    3.44
  -3  -6   5   35.47    1.73
  -3  -6   5   37.84    1.88
  -4  -6   5   17.20    0.87
  -4  -6   5   16.50    0.97
  -5  -6   5    6.05    0.45
  -5  -6   5    5.50    0.57
  -3   7  -5    4.04    0.34
  -2   7  -5    0.96    0.21
  -2   7  -5    0.95    0.19
  -1   7  -5   11.36    0.61
  -1   7  -5   11.69    0.63
   0   7  -5   16.48    0.77
   0   7  -5   17.08    0.84
   0   7  -5   16.86    0.87
   1   7  -5    6.24    0.39
   1   7  -5    6.04    0.37
   1   7  -5    5.94    0.33
  -1  -7   5    5.83    0.33
  -1  -7   5    6.42    0.42
   2   7  -5    0.44    0.13
   2   7  -5    0.13    0.11
  -2  -7   5    0.00    0.22
  -2  -7   5    0.33    0.18
  -3  -7   5    0.40    0.27
  -3  -7   5    0.76    0.21
  -4  -7   5    0.88    0.24
  -4  -7   5    0.22    0.32
  -3   8  -5    2.70    0.33
  -2   8  -5    4.46    0.34
  -2   8  -5    3.88    0.35
  -1   8  -5    8.71    0.51
  -1   8  -5    8.52    0.51
   0   8  -5   12.82    0.62
   0   8  -5   12.95    0.68
   0   8  -5   12.60    0.69
   1   8  -5   26.97    1.26
   1   8  -5   25.71    1.14
   1   8  -5   25.65    1.31
   2   8  -5   16.46    0.84
  -2  -8   5   16.06    0.92
  -3  -8   5    9.57    0.54
  -3  -8   5    8.86    0.65
  -4  -8   5    6.30    0.60
  -4  -8   5    8.41    0.49
  -2   9  -5    0.20    0.24
  -2   9  -5    0.33    0.22
  -1   9  -5    2.64    0.29
  -1   9  -5    2.39    0.29
   0   9  -5    4.46    0.39
   0   9  -5    4.07    0.33
   1   9  -5    1.21    0.19
   1   9  -5    1.44    0.21
   2   9  -5    0.03    0.16
  -2  -9   5   -0.17    0.28
  -3  -9   5    0.05    0.32
  -2  10  -5    1.19    0.26
  -2  10  -5    0.97    0.28
  -1  10  -5    4.22    0.40
  -1  10  -5    3.82    0.36
   0  10  -5    1.13    0.28
   0  10  -5    1.00    0.23
   1  10  -5    4.25    0.35
  -2 -10   5    5.69    0.52
  -3 -10   5    3.19    0.45
  -1  11  -5    0.09    0.29
  -1  11  -5    0.26    0.24
   0  11  -5    0.56    0.24
   1  11  -5    1.78    0.26
  -1  11   6    0.91    0.23
  -1 -10  -6    2.08    0.35
   0 -10  -6    1.66    0.29
  -1  10   6    0.05    0.22
  -1  10   6   -0.04    0.20
  -2  10   6    0.04    0.24
  -2  10   6    0.07    0.22
  -2  -9  -6    2.49    0.36
  -2  -9  -6    3.20    0.36
  -1  -9  -6    5.09    0.42
  -1  -9  -6    5.74    0.43
  -1  -9  -6    4.04    0.46
   0  -9  -6   14.47    0.81
   0   9   6   13.90    0.82
  -1   9   6    5.78    0.38
  -1   9   6    5.10    0.41
  -2   9   6    3.38    0.32
  -2   9   6    3.27    0.36
  -2   9   6    3.42    0.36
  -3   9   6    0.39    0.23
  -3   9   6    0.25    0.25
  -3   9   6    0.33    0.25
  -3  -8  -6    0.79    0.25
  -3  -8  -6    0.71    0.30
  -2  -8  -6    8.82    0.61
  -2  -8  -6    9.30    0.55
  -1  -8  -6   16.05    0.81
  -1  -8  -6   13.59    0.87
  -1  -8  -6   16.24    0.80
   0  -8  -6    7.80    0.49
   0  -8  -6    7.75    0.51
   0   8   6    7.49    0.50
   0   8   6    7.44    0.44
   1  -8  -6    0.38    0.21
  -1   8   6    0.61    0.22
  -1   8   6    0.45    0.19
  -1   8   6    0.41    0.17
  -2   8   6    0.16    0.22
  -2   8   6    0.05    0.19
  -2   8   6    0.29    0.21
  -3   8   6    2.80    0.33
  -3   8   6    2.33    0.33
  -3   8   6    2.52    0.28
  -4   8   6    0.66    0.26
  -4   8   6    0.55    0.30
  -4   8   6    0.42    0.23
  -3  -7  -6    4.33    0.39
  -3  -7  -6    4.13    0.36
  -2  -7  -6    6.68    0.44
  -2  -7  -6    6.75    0.49
  -1  -7  -6   21.29    1.00
  -1  -7  -6   18.78    1.09
  -1  -7  -6   22.46    1.01
   1   7   6   18.38    1.10
   0  -7  -6   35.99    1.69
   0  -7  -6   34.25    1.80
   0   7   6   35.94    1.88
   0   7   6   36.39    1.76
   1  -7  -6   21.84    1.09
  -1   7   6   20.50    1.02
  -1   7   6   20.13    1.13
  -1   7   6   20.89    1.06
  -2   7   6    9.42    0.59
  -2   7   6    8.81    0.53
  -2   7   6    9.31    0.52
  -3   7   6    2.38    0.27
  -3   7   6    2.74    0.28
  -3   7   6    2.50    0.34
  -4   7   6    1.75    0.30
  -4   7   6    1.90    0.28
  -4   7   6    1.85    0.25
  -3  -6  -6    7.60    0.49
  -3  -6  -6    8.42    0.51
  -2  -6  -6   10.19    0.59
  -2  -6  -6    9.58    0.55
  -1  -6  -6   17.33    0.94
  -1  -6  -6   18.21    0.86
  -1  -6  -6   17.46    0.86
   1   6   6   15.93    0.95
   0  -6  -6    8.12    0.50
   0  -6  -6    8.80    0.53
   0   6   6    8.71    0.45
   0   6   6    8.66    0.47
   0   6   6    8.84    0.53
   1  -6  -6    0.32    0.18
   1  -6  -6    0.50    0.19
  -1   6   6    0.57    0.14
  -1   6   6    0.48    0.17
  -1   6   6    0.31    0.12
  -1   6   6    0.35    0.17
  -2   6   6    6.56    0.40
  -2   6   6    6.41    0.39
  -2   6   6    6.66    0.46
  -2   6   6    6.77    0.37
  -3   6   6    0.72    0.18
  -3   6   6    0.56    0.20
  -3   6   6    0.75    0.23
  -3   6   6    0.37    0.16
  -4   6   6    1.55    0.25
  -4   6   6    1.39    0.29
  -4   6   6    1.55    0.22
  -5   6   6    0.20    0.24
  -5   6   6    0.01    0.21
  -5   6   6    0.06    0.28
  -4  -5  -6    0.61    0.23
  -3  -5  -6    5.51    0.38
  -3  -5  -6    5.28    0.37
  -2  -5  -6   36.76    1.75
  -2  -5  -6   38.35    1.87
  -1  -5  -6   35.48    1.68
  -1  -5  -6   36.74    1.68
  -1  -5  -6   34.81    1.81
   1   5   6   35.97    1.58
   1   5   6   36.91    1.90
   0  -5  -6   39.84    2.02
   0  -5  -6   40.00    1.88
   0   5   6   40.11    1.74
   0   5   6   40.63    2.11
   0   5   6   40.96    1.87
   0   5   6   40.63    1.98
   1  -5  -6   36.03    1.79
   1  -5  -6   33.04    1.69
  -1   5   6   36.68    1.88
  -1   5   6   35.73    1.54
  -1   5   6   36.47    1.67
  -1   5   6   36.60    1.76
  -2   5   6   14.40    0.72
  -2   5   6   14.67    0.82
  -2   5   6   13.99    0.75
  -2   5   6   14.69    0.66
  -3   5   6    0.45    0.14
  -3   5   6    0.32    0.20
  -3   5   6    0.36    0.16
  -3   5   6    0.36    0.18
  -4   5   6    1.28    0.20
  -4   5   6    1.15    0.23
  -4   5   6    1.09    0.26
  -5   5   6    7.74    0.59
  -5   5   6    8.12    0.48
  -5   5   6    8.11    0.52
  -4  -4  -6   14.17    0.73
  -3  -4  -6   33.01    1.54
  -2  -4  -6    7.23    0.39
  -2  -4  -6    6.31    0.38
   2   4   6    4.92    0.44
  -1  -4  -6   15.65    0.77
  -1  -4  -6   15.29    0.83
   1   4   6   15.01    0.74
   1   4   6   16.14    0.87
   0  -4  -6    6.49    0.41
   0  -4  -6    6.17    0.39
   0  -4  -6    6.81    0.36
   0   4   6    6.25    0.36
   0   4   6    6.78    0.38
   0   4   6    6.48    0.42
   0   4   6    6.21    0.34
   1  -4  -6    0.52    0.18
   1  -4  -6    0.54    0.16
   1  -4  -6    0.42    0.11
  -1   4   6    0.39    0.11
  -1   4   6    0.41    0.13
  -1   4   6    0.50    0.15
  -1   4   6    0.47    0.15
   2  -4  -6   36.64    1.66
   2  -4  -6   35.77    1.50
   2  -4  -6   35.03    1.70
  -2   4   6   35.11    1.50
  -2   4   6   33.54    1.84
  -2   4   6   34.43    1.64
  -2   4   6   34.85    1.73
   3  -4  -6    3.30    0.24
  -3   4   6    3.21    0.23
  -3   4   6    3.27    0.28
  -3   4   6    3.05    0.25
  -3   4   6    3.22    0.31
  -4   4   6   11.58    0.70
  -4   4   6   11.24    0.61
  -4   4   6   11.17    0.61
  -5   4   6    2.62    0.37
  -5   4   6    2.63    0.33
  -4  -3  -6    1.00    0.21
  -3  -3  -6    4.18    0.30
  -2  -3  -6   65.16    2.93
  -2  -3  -6   66.76    3.13
  -2  -3  -6   64.00    2.93
   2   3   6   67.32    2.76
   2   3   6   57.84    3.32
  -1  -3  -6   74.71    3.36
  -1  -3  -6   72.59    3.60
   1   3   6   79.09    3.80
   1   3   6   67.92    3.13
   0  -3  -6   76.15    3.57
   0  -3  -6   81.76    3.82
   0  -3  -6   81.23    3.30
   0   3   6   76.86    3.29
   0   3   6   72.76    4.01
   0   3   6   75.05    3.79
   0   3   6   82.25    3.56
   1  -3  -6   57.41    3.29
   1  -3  -6   69.09    2.83
   1  -3  -6   69.79    3.09
  -1   3   6   68.24    3.27
  -1   3   6   70.06    3.46
  -1   3   6   68.15    3.07
  -1   3   6   68.00    2.83
   2  -3  -6   42.99    2.03
   2  -3  -6   42.49    1.77
   2  -3  -6   35.47    1.94
  -2   3   6   42.30    1.77
  -2   3   6   43.43    1.94
  -2   3   6   42.07    2.05
  -2   3   6   43.10    2.18
   3  -3  -6    0.08    0.10
  -3   3   6    0.11    0.10
  -3   3   6    0.23    0.17
  -3   3   6   -0.06    0.13
  -3   3   6   -0.01    0.16
  -4   3   6    4.21    0.37
  -4   3   6    4.12    0.29
  -4   3   6    4.45    0.33
  -5   3   6   14.97    0.90
  -5   3   6   15.37    0.80
  -4  -2  -6   41.17    1.90
  -3  -2  -6   38.31    1.75
  -3  -2  -6   37.62    1.75
  -2  -2  -6   31.78    1.45
  -2  -2  -6   29.46    1.44
  -2  -2  -6   31.57    1.52
   2   2   6   30.40    1.66
   2   2   6   32.19    1.39
  -1  -2  -6   50.99    2.50
  -1  -2  -6   53.23    2.65
  -1  -2  -6   52.57    2.33
  -1  -2  -6   54.20    2.48
   1   2   6   55.44    2.81
   1   2   6   54.80    2.33
   1   2   6   57.13    2.47
   0  -2  -6   21.64    1.13
   0  -2  -6   26.29    1.19
   0  -2  -6   23.64    1.06
   0   2   6   20.35    1.26
   0   2   6   23.46    1.05
   0   2   6   24.58    1.12
   0   2   6   24.55    1.16
   1  -2  -6   10.59    0.55
   1  -2  -6   10.32    0.48
  -1   2   6    9.75    0.47
  -1   2   6   10.26    0.59
  -1   2   6    9.78    0.53
  -1   2   6    9.48    0.52
   2  -2  -6   37.62    1.64
   2  -2  -6   37.08    1.81
   2  -2  -6   39.29    1.89
  -2   2   6   40.22    2.03
  -2   2   6   39.10    1.91
  -2   2   6   38.98    1.81
  -2   2   6   39.59    1.65
   3  -2  -6    3.89    0.22
  -3   2   6    3.82    0.30
  -3   2   6    3.86    0.22
  -3   2   6    3.58    0.26
  -3   2   6    3.57    0.30
  -4   2   6   14.74    0.76
  -4   2   6   14.75    0.76
  -4   2   6   14.95    0.85
  -5   2   6    6.43    0.50
  -5   2   6    5.78    0.46
  -4  -1  -6    0.62    0.18
  -4  -1  -6    0.79    0.19
  -3  -1  -6    1.98    0.22
  -3  -1  -6    2.15    0.23
  -2  -1  -6   34.62    1.64
   2   1   6   36.45    1.57
   2   1   6   35.20    1.88
  -1  -1  -6  135.92    6.60
  -1  -1  -6  144.11    6.18
  -1  -1  -6  130.43    6.17
  -1  -1  -6  145.24    5.72
   1   1   6  119.30    6.96
   1   1   6  142.47    5.72
   0  -1  -6  271.46   12.76
   0  -1  -6  265.36   11.00
   0  -1  -6  267.07   11.91
   0   1   6  260.57   13.42
   0   1   6  249.95   10.99
   0   1   6  267.79   11.91
   1  -1  -6  121.08    4.80
   1  -1  -6   99.16    5.57
   1  -1  -6  118.62    5.22
  -1   1   6  118.84    5.57
  -1   1   6  110.93    4.80
  -1   1   6  115.22    5.22
  -1   1   6  119.02    5.87
   2  -1  -6  103.98    4.98
   2  -1  -6   98.31    4.29
   2  -1  -6  109.11    4.68
  -2   1   6  106.55    5.27
  -2   1   6  104.93    4.99
  -2   1   6   97.89    4.29
  -2   1   6   99.36    4.68
   3  -1  -6    2.99    0.17
  -3   1   6    2.89    0.28
  -3   1   6    2.81    0.22
  -3   1   6    2.90    0.17
  -3   1   6    2.50    0.26
  -4   1   6   23.80    1.21
  -4   1   6   24.96    1.23
  -4   1   6   24.82    1.33
  -5   1   6    8.97    0.51
  -5   1   6    9.20    0.59
  -5   1   6    8.96    0.60
  -4   0  -6   77.91    3.55
  -3   0  -6   27.41    1.29
  -2   0  -6   69.44    3.25
   2   0   6   68.50    3.05
   2   0   6   76.10    3.69
  -1   0  -6  114.02    4.84
  -1   0  -6  103.97    5.16
  -1   0  -6  100.54    4.83
  -1   0  -6  107.53    4.48
   1   0   6  105.71    4.48
   0   0  -6   74.11    3.06
   0   0  -6   72.15    3.52
   0   0  -6   75.76    3.31
   0   0  -6   70.97    3.30
   0   0   6   68.80    3.05
   0   0   6   72.01    3.73
   0   0   6   71.52    3.29
   1   0  -6   32.80    1.74
   1   0  -6   35.62    1.61
   1   0  -6   40.05    1.86
   1   0  -6   38.20    1.86
  -1   0   6   33.53    1.97
  -1   0   6   41.94    1.76
  -1   0   6   38.16    1.85
  -1   0   6   40.09    1.61
   2   0  -6   22.10    1.12
   2   0  -6   22.44    0.97
   2   0  -6   24.81    1.09
  -2   0   6   23.33    0.99
  -2   0   6   23.23    1.14
  -2   0   6   23.37    1.23
  -2   0   6   20.54    1.11
   3   0  -6   25.43    1.09
  -3   0   6   26.27    1.38
  -3   0   6   27.32    1.10
  -3   0   6   25.78    1.29
  -3   0   6   24.73    1.27
  -4   0   6   12.01    0.72
  -4   0   6   12.83    0.66
  -4   0   6   12.89    0.73
  -5   0   6    7.38    0.57
  -5   0   6    8.18    0.46
  -5   0   6    7.67    0.52
  -4   1  -6    0.06    0.20
  -3   1  -6    1.15    0.19
  -2   1  -6   32.71    1.52
   2  -1   6   28.57    1.45
   2  -1   6   36.17    1.74
  -1   1  -6  139.77    5.61
  -1   1  -6  115.76    5.20
  -1   1  -6  119.49    6.00
  -1   1  -6  123.56    5.61
   1  -1   6  112.16    5.20
   1  -1   6  131.12    6.34
   0   1  -6  248.01   11.37
   0   1  -6  242.85   11.36
   0   1  -6  246.73   10.49
   0   1  -6  283.48   12.19
   0  -1   6  234.19   10.49
   0  -1   6  254.32   12.81
   1   1  -6  124.27    5.64
   1   1  -6  131.07    6.04
   1   1  -6  133.58    5.20
  -1  -1   6  129.65    5.65
  -1  -1   6  107.34    5.19
  -1  -1   6  122.09    6.04
  -1  -1   6  122.27    6.37
   2   1  -6   98.63    4.53
   2   1  -6   97.48    4.84
   2   1  -6  103.79    4.16
  -2  -1   6   92.73    4.17
  -2  -1   6   97.85    5.12
  -2  -1   6  101.21    4.86
  -2  -1   6  107.46    4.57
  -3  -1   6    3.22    0.29
  -3  -1   6    3.00    0.25
  -3  -1   6    2.92    0.33
  -4  -1   6   25.09    1.37
  -4  -1   6   27.15    1.29
  -4  -1   6   24.49    1.27
  -5  -1   6    9.23    0.59
  -5  -1   6    9.10    0.52
  -5  -1   6    8.99    0.64
  -4   2  -6   40.63    1.88
  -3   2  -6   38.44    1.78
  -2   2  -6   31.99    1.39
  -2   2  -6   27.03    1.32
  -1   2  -6   50.17    2.26
  -1   2  -6   53.52    2.59
  -1   2  -6   52.02    2.43
  -1   2  -6   51.99    2.44
   1  -2   6   57.69    2.77
   0   2  -6   23.22    1.10
   0   2  -6   23.87    1.02
   0   2  -6   20.02    1.16
   0   2  -6   23.82    1.11
   0  -2   6   24.46    1.03
   1   2  -6    8.77    0.47
   1   2  -6    9.91    0.51
   1   2  -6   10.38    0.53
  -1  -2   6   10.45    0.61
  -1  -2   6   10.58    0.53
  -1  -2   6    8.97    0.53
   2   2  -6   33.05    1.57
   2   2  -6   38.67    1.71
   2   2  -6   37.13    1.81
   2   2  -6   39.96    1.56
  -2  -2   6   34.50    1.96
  -2  -2   6   39.15    1.75
  -2  -2   6   37.04    1.85
  -3  -2   6    3.93    0.34
  -3  -2   6    3.75    0.28
  -3  -2   6    3.61    0.34
  -4  -2   6   14.12    0.82
  -4  -2   6   15.31    0.84
  -4  -2   6   14.49    0.78
  -5  -2   6    4.54    0.49
  -5  -2   6    7.03    0.42
  -4   3  -6    0.37    0.20
  -3   3  -6    3.01    0.28
  -2   3  -6   61.84    2.59
  -2   3  -6   58.85    2.77
  -1   3  -6   73.96    3.12
  -1   3  -6   67.95    3.37
  -1   3  -6   72.05    3.12
  -1   3  -6   78.05    3.59
   1  -3   6   76.29    3.81
   0   3  -6   79.03    3.32
   0   3  -6   80.98    3.32
   0   3  -6   71.74    3.85
   0   3  -6   83.28    3.60
   0   3  -6   76.50    3.59
   0  -3   6   81.97    4.08
   1   3  -6   66.93    3.03
   1   3  -6   64.16    2.79
   1   3  -6   69.47    3.24
   1   3  -6   67.75    2.79
  -1  -3   6   58.29    3.43
  -1  -3   6   71.94    3.25
  -1  -3   6   66.37    3.06
   2   3  -6   42.64    1.81
   2   3  -6   41.98    1.98
   2   3  -6   40.83    2.10
   2   3  -6   46.39    1.83
  -2  -3   6   46.87    2.27
  -2  -3   6   38.48    2.01
  -2  -3   6   44.31    2.15
  -3  -3   6   -0.39    0.20
  -3  -3   6    0.14    0.17
  -3  -3   6   -0.15    0.18
  -4  -3   6    3.55    0.40
  -4  -3   6    3.77    0.33
  -4  -3   6    4.08    0.36
  -5  -3   6   15.19    0.86
  -5  -3   6   16.05    0.88
  -4   4  -6   12.56    0.67
  -3   4  -6   30.63    1.45
  -2   4  -6    6.78    0.42
  -1   4  -6   15.48    0.71
  -1   4  -6   14.23    0.79
  -1   4  -6   15.65    0.76
   0   4  -6    6.17    0.35
   0   4  -6    6.37    0.35
   0   4  -6    6.66    0.38
   0   4  -6    6.82    0.40
   0  -4   6    6.64    0.44
   1   4  -6    0.51    0.13
   1   4  -6    0.41    0.11
   1   4  -6    0.55    0.11
   1   4  -6    0.50    0.15
  -1  -4   6    0.44    0.16
  -1  -4   6    0.23    0.18
  -1  -4   6    0.44    0.14
   2   4  -6   33.56    1.45
   2   4  -6   35.00    1.59
   2   4  -6   33.70    1.68
   2   4  -6   33.80    1.44
  -2  -4   6   35.29    1.63
  -2  -4   6   29.47    1.81
  -2  -4   6   38.62    1.73
  -3  -4   6    3.62    0.36
  -3  -4   6    3.60    0.35
  -3  -4   6    3.64    0.37
  -4  -4   6   10.02    0.65
  -4  -4   6   10.99    0.64
  -5  -4   6    2.41    0.34
  -5  -4   6    2.43    0.35
  -4   5  -6    0.88    0.22
  -3   5  -6    6.37    0.42
  -2   5  -6   38.95    1.82
  -1   5  -6   36.20    1.53
  -1   5  -6   38.04    1.65
  -1   5  -6   31.28    1.74
   0   5  -6   39.64    1.73
   0   5  -6   42.04    1.99
   0   5  -6   39.53    1.87
   0   5  -6   40.56    1.72
   0  -5   6   39.34    2.11
   1   5  -6   35.83    1.62
   1   5  -6   36.81    1.77
   1   5  -6   37.46    1.88
   1   5  -6   38.90    1.62
  -1  -5   6   37.11    2.00
  -1  -5   6   40.56    1.88
  -1  -5   6   39.21    1.78
   2   5  -6   14.34    0.76
   2   5  -6   14.45    0.65
   2   5  -6   15.11    0.66
   2   5  -6   14.68    0.75
  -2  -5   6   15.53    0.79
  -2  -5   6   15.07    0.84
  -2  -5   6   15.46    0.82
  -3  -5   6    0.38    0.23
  -3  -5   6    0.43    0.22
  -3  -5   6    0.32    0.19
  -4  -5   6    0.90    0.30
  -4  -5   6    1.31    0.27
  -5  -5   6    8.04    0.55
  -5  -5   6    7.12    0.62
  -3   6  -6    8.61    0.51
  -2   6  -6    7.30    0.51
  -2   6  -6    9.90    0.49
  -1   6  -6   18.24    0.95
  -1   6  -6   18.10    0.90
   0   6  -6    8.17    0.44
   0   6  -6    8.40    0.49
   0   6  -6    8.86    0.49
   1   6  -6    0.26    0.11
   1   6  -6    0.55    0.17
   1   6  -6    0.40    0.13
   1   6  -6    0.44    0.16
  -1  -6   6    0.36    0.16
  -1  -6   6    0.57    0.17
   2   6  -6    6.82    0.40
   2   6  -6    6.73    0.34
  -2  -6   6    7.01    0.44
  -2  -6   6    6.78    0.45
  -2  -6   6    7.35    0.48
  -3  -6   6    0.75    0.23
  -3  -6   6    0.67    0.26
  -4  -6   6    1.56    0.33
  -4  -6   6    1.51    0.28
  -5  -6   6   -0.02    0.34
  -5  -6   6    0.21    0.27
  -3   7  -6    4.47    0.38
  -2   7  -6    6.87    0.44
  -2   7  -6    6.57    0.45
  -1   7  -6   21.41    1.07
  -1   7  -6   22.21    1.12
   0   7  -6   33.78    1.48
   0   7  -6   34.28    1.70
   0   7  -6   34.08    1.61
   1   7  -6   20.99    1.12
   1   7  -6   21.54    1.07
   1   7  -6   20.82    0.97
  -1  -7   6   24.11    1.12
   2   7  -6    9.33    0.54
  -2  -7   6   10.16    0.61
  -2  -7   6   10.05    0.56
  -2  -7   6    9.55    0.57
  -3  -7   6    2.71    0.31
  -3  -7   6    2.58    0.35
  -4  -7   6    1.88    0.28
  -4  -7   6    1.75    0.36
  -3   8  -6    1.06    0.26
  -2   8  -6    9.65    0.58
  -2   8  -6   10.60    0.61
  -1   8  -6   16.50    0.85
  -1   8  -6   16.58    0.89
   0   8  -6    7.03    0.45
   0   8  -6    7.06    0.47
   1   8  -6    0.50    0.19
   1   8  -6    0.41    0.21
   1   8  -6    0.45    0.16
   2   8  -6    0.31    0.17
  -2  -8   6   -0.09    0.24
  -3  -8   6    2.11    0.30
  -3  -8   6    2.49    0.36
  -4  -8   6    0.45    0.25
  -4  -8   6    0.12    0.33
  -2   9  -6    3.40    0.36
  -2   9  -6    3.37    0.39
  -1   9  -6    5.65    0.42
  -1   9  -6    5.36    0.44
   0   9  -6   13.41    0.76
   0   9  -6   13.87    0.75
   1   9  -6    5.59    0.40
   2   9  -6    3.16    0.30
  -2  -9   6    3.49    0.42
  -3  -9   6   -0.17    0.32
  -1  10  -6    1.93    0.32
  -1  10  -6    2.17    0.29
   0  10  -6    1.43    0.29
   0  10  -6    1.37    0.26
   1  10  -6    0.22    0.22
   1  11  -6    0.87    0.25
   0 -10  -7    0.17    0.26
  -1  10   7    0.79    0.27
  -1  10   7    0.83    0.21
  -2  10   7    1.49    0.32
  -2  10   7    1.92    0.27
  -1  -9  -7    0.64    0.30
   0  -9  -7    0.23    0.24
  -1   9   7    0.36    0.20
  -1   9   7    0.39    0.23
  -2   9   7    0.35    0.22
  -2   9   7    0.12    0.24
  -3   9   7    2.12    0.35
  -3   9   7    2.33    0.32
  -3   9   7    2.14    0.29
  -2  -8  -7    1.19    0.26
  -2  -8  -7    0.83    0.26
  -2  -8  -7    0.76    0.31
  -1  -8  -7    1.29    0.28
  -1  -8  -7    1.33    0.31
   0  -8  -7    1.11    0.24
   0   8   7    0.88    0.24
   1  -8  -7    0.59    0.23
  -1   8   7    0.49    0.21
  -1   8   7    0.71    0.18
  -2   8   7    1.23    0.24
  -2   8   7    0.96    0.25
  -2   8   7    0.98    0.22
  -3   8   7    7.54    0.56
  -3   8   7    7.52    0.51
  -3   8   7    7.52    0.48
  -4   8   7    8.84    0.67
  -4   8   7    9.12    0.59
  -4   8   7    9.58    0.57
  -3  -7  -7    2.61    0.33
  -3  -7  -7    1.89    0.30
  -3  -7  -7    2.57    0.36
  -2  -7  -7    1.15    0.29
  -2  -7  -7    0.91    0.24
  -2  -7  -7    0.86    0.24
  -1  -7  -7    0.95    0.25
  -1  -7  -7    0.41    0.26
   0  -7  -7    0.89    0.24
   0  -7  -7    0.92    0.22
   0   7   7    0.70    0.22
   1  -7  -7    0.70    0.22
  -1   7   7    0.84    0.21
  -1   7   7    0.82    0.17
  -2   7   7    1.12    0.20
  -2   7   7    1.32    0.23
  -2   7   7    1.01    0.21
  -3   7   7    1.55    0.29
  -3   7   7    1.94    0.27
  -3   7   7    1.91    0.26
  -4   7   7    2.25    0.31
  -4   7   7    2.01    0.34
  -4   7   7    2.19    0.27
  -3  -6  -7    6.19    0.46
  -3  -6  -7    5.67    0.41
  -3  -6  -7    5.70    0.42
  -2  -6  -7    8.37    0.50
  -2  -6  -7    8.12    0.55
  -2  -6  -7    8.83    0.51
  -1  -6  -7    8.61    0.62
  -1  -6  -7   10.51    0.58
   1   6   7   10.60    0.63
   0  -6  -7   -0.03    0.21
   0  -6  -7    0.15    0.19
   0   6   7   -0.04    0.18
   1  -6  -7   10.63    0.58
   1  -6  -7    8.92    0.59
  -1   6   7    9.29    0.59
  -1   6   7    9.35    0.53
  -1   6   7    9.35    0.53
  -2   6   7    8.51    0.49
  -2   6   7    8.56    0.45
  -2   6   7    9.10    0.52
  -2   6   7    8.49    0.55
  -3   6   7   22.70    1.14
  -3   6   7   24.14    1.19
  -3   6   7   22.87    1.29
  -4   6   7   23.02    1.32
  -4   6   7   23.53    1.17
  -4   6   7   24.22    1.21
  -3  -5  -7    2.54    0.30
  -3  -5  -7    2.61    0.31
  -3  -5  -7    2.42    0.31
  -2  -5  -7    0.41    0.20
  -2  -5  -7    0.62    0.20
  -2  -5  -7    0.49    0.23
  -1  -5  -7    1.06    0.24
  -1  -5  -7    1.53    0.22
   1   5   7    2.14    0.27
   0  -5  -7   11.53    0.64
   0  -5  -7   11.06    0.62
   0   5   7   11.14    0.68
   0   5   7   11.18    0.57
   0   5   7   11.31    0.59
   1  -5  -7   37.53    1.91
   1  -5  -7   43.54    2.02
  -1   5   7   40.53    2.12
  -1   5   7   40.22    1.74
  -1   5   7   39.60    1.88
  -1   5   7   40.54    1.99
  -2   5   7    0.62    0.18
  -2   5   7    0.67    0.14
  -2   5   7    0.85    0.18
  -2   5   7    0.67    0.16
  -3   5   7    0.05    0.14
  -3   5   7    0.33    0.21
  -3   5   7    0.11    0.18
  -3   5   7    0.05    0.16
  -4   5   7    2.91    0.33
  -4   5   7    2.63    0.29
  -4   5   7    2.53    0.36
  -5   5   7    3.79    0.44
  -5   5   7    4.41    0.41
  -5   5   7    4.27    0.36
  -3  -4  -7   24.83    1.20
  -3  -4  -7   25.10    1.20
  -2  -4  -7   26.97    1.28
  -2  -4  -7   26.58    1.20
   2   4   7   21.36    1.35
  -1  -4  -7   36.40    1.94
  -1  -4  -7   40.57    1.81
   1   4   7   36.75    1.70
   1   4   7   40.58    2.03
   0  -4  -7    0.70    0.20
   0  -4  -7    0.84    0.18
   0   4   7    0.69    0.19
   0   4   7    0.64    0.15
   0   4   7    0.84    0.12
   1  -4  -7   29.61    1.46
   1  -4  -7   29.08    1.39
  -1   4   7   28.77    1.43
  -1   4   7   29.18    1.54
  -1   4   7   28.40    1.26
  -1   4   7   27.63    1.36
   2  -4  -7   50.05    2.24
   2  -4  -7   45.15    1.95
  -2   4   7   45.85    2.12
  -2   4   7   44.07    2.25
  -2   4   7   44.38    2.39
  -2   4   7   45.00    1.95
   3  -4  -7   37.83    1.60
  -3   4   7   36.25    1.96
  -3   4   7   37.70    1.75
  -3   4   7   37.36    1.59
  -3   4   7   36.60    1.84
  -4   4   7   61.01    3.19
  -4   4   7   60.78    3.00
  -4   4   7   61.77    2.83
  -5   4   7   28.41    1.55
  -5   4   7   28.03    1.38
  -4  -3  -7   22.21    1.07
  -4  -3  -7   21.34    1.07
  -3  -3  -7    2.95    0.30
  -3  -3  -7    3.36    0.31
  -2  -3  -7    0.17    0.16
  -2  -3  -7    0.09    0.18
   2   3   7   -0.38    0.19
  -1  -3  -7    3.21    0.32
  -1  -3  -7    3.38    0.29
   1   3   7    3.36    0.28
   1   3   7    4.52    0.34
   0  -3  -7   19.72    1.04
   0  -3  -7   22.84    1.09
   0   3   7   22.21    0.97
   0   3   7   18.09    1.15
   0   3   7   22.90    1.03
   1  -3  -7   90.38    3.76
   1  -3  -7   91.71    4.09
   1  -3  -7   88.24    4.36
  -1   3   7   89.55    4.34
  -1   3   7   86.29    3.76
  -1   3   7   89.39    4.59
  -1   3   7   89.49    4.08
   2  -3  -7    0.67    0.12
   2  -3  -7    0.36    0.20
   2  -3  -7    0.61    0.12
  -2   3   7    0.62    0.15
  -2   3   7    0.48    0.18
  -2   3   7    0.63    0.13
  -2   3   7    0.60    0.18
   3  -3  -7    1.16    0.14
  -3   3   7    0.89    0.19
  -3   3   7    0.96    0.13
  -3   3   7    0.92    0.16
  -3   3   7    0.98    0.21
  -4   3   7    2.80    0.32
  -4   3   7    2.53    0.25
  -4   3   7    2.62    0.31
  -5   3   7   10.30    0.59
  -5   3   7   10.37    0.62
  -5   3   7   10.68    0.68
  -4  -2  -7   10.92    0.61
  -3  -2  -7   23.41    1.13
  -2  -2  -7   37.86    1.81
  -2  -2  -7   39.54    1.91
  -1  -2  -7   54.04    2.50
  -1  -2  -7   50.40    2.66
   1   2   7   53.79    2.33
   1   2   7   58.08    2.82
   0  -2  -7    0.36    0.15
   0  -2  -7   -0.09    0.17
   0  -2  -7    0.22    0.16
   0   2   7    0.17    0.16
   0   2   7    0.32    0.15
   1  -2  -7   17.12    0.75
   1  -2  -7   17.35    0.82
   1  -2  -7   14.68    0.85
  -1   2   7   17.42    0.92
  -1   2   7   16.35    0.84
  -1   2   7   15.90    0.82
  -1   2   7   15.59    0.74
   2  -2  -7   49.11    2.02
   2  -2  -7   50.29    2.34
   2  -2  -7   40.55    2.22
  -2   2   7   48.49    2.34
  -2   2   7   50.05    2.49
  -2   2   7   47.24    2.03
  -2   2   7   48.31    2.22
   3  -2  -7   82.88    3.49
  -3   2   7   84.35    4.29
  -3   2   7   85.89    3.49
  -3   2   7   82.20    4.06
  -3   2   7   81.46    3.82
  -4   2   7   70.79    3.32
  -4   2   7   71.50    3.51
  -4   2   7   73.31    3.72
  -5   2   7   35.33    1.76
  -5   2   7   36.81    1.95
  -5   2   7   37.17    1.81
  -4  -1  -7    8.38    0.51
  -3  -1  -7    6.60    0.43
  -2  -1  -7    0.03    0.18
  -2  -1  -7    0.02    0.12
   2   1   7   -0.01    0.21
  -1  -1  -7    0.26    0.17
  -1  -1  -7    0.25    0.16
   1   1   7    0.54    0.14
   1   1   7    0.70    0.19
   0  -1  -7   19.81    1.00
   0  -1  -7   20.26    0.91
   0  -1  -7   19.85    0.96
   0   1   7   18.42    0.89
   0   1   7   20.11    1.09
   0   1   7   19.63    0.95
   1  -1  -7   27.26    1.19
   1  -1  -7   29.23    1.30
  -1   1   7   26.00    1.45
  -1   1   7   26.89    1.35
  -1   1   7   25.69    1.18
  -1   1   7   26.79    1.30
   2  -1  -7   16.31    0.72
   2  -1  -7   16.72    0.82
   2  -1  -7   16.12    0.83
  -2   1   7   15.59    0.73
  -2   1   7   15.03    0.82
  -2   1   7   17.03    0.92
  -2   1   7   16.77    0.84
   3  -1  -7    0.31    0.09
  -3   1   7    0.14    0.14
  -3   1   7    0.21    0.18
  -3   1   7   -0.09    0.18
  -3   1   7    0.22    0.09
  -4   1   7    2.15    0.29
  -4   1   7    1.85    0.24
  -4   1   7    2.66    0.31
  -5   1   7   19.86    1.12
  -5   1   7   19.94    1.02
  -5   1   7   19.82    1.07
  -4   0  -7   13.05    0.72
  -3   0  -7   11.15    0.62
  -2   0  -7   32.37    1.63
   2   0   7   36.89    1.86
  -1   0  -7   59.86    2.57
  -1   0  -7   52.60    2.74
   1   0   7   49.45    2.91
   1   0   7   61.62    2.41
   0   0  -7    4.94    0.35
   0   0  -7    5.10    0.33
   0   0  -7    5.00    0.34
   0   0   7    5.27    0.39
   0   0   7    4.99    0.31
   1   0  -7    3.94    0.32
   1   0  -7    5.20    0.32
   1   0  -7    4.06    0.34
  -1   0   7    5.36    0.28
  -1   0   7    4.59    0.31
  -1   0   7    4.54    0.36
  -1   0   7    5.49    0.35
   2   0  -7   32.50    1.48
   2   0  -7   31.08    1.34
   2   0  -7   32.28    1.54
  -2   0   7   31.08    1.67
  -2   0   7   30.61    1.50
  -2   0   7   30.24    1.56
  -2   0   7   31.34    1.35
  -3   0   7  121.43    6.27
  -3   0   7  122.47    5.95
  -3   0   7  114.32    5.60
  -3   0   7  131.47    5.11
  -4   0   7   69.02    3.19
  -4   0   7   67.21    3.33
  -4   0   7   68.01    3.53
  -5   0   7   45.63    2.41
  -5   0   7   46.45    2.21
  -5   0   7   44.71    2.25
  -4   1  -7    7.83    0.49
  -3   1  -7    6.35    0.42
  -2   1  -7    1.79    0.21
  -1   1  -7    0.37    0.15
  -1   1  -7    0.29    0.16
   1  -1   7    0.14    0.19
   1  -1   7    0.26    0.15
   0   1  -7   18.58    0.96
   0   1  -7   20.96    1.01
   0   1  -7   19.56    0.89
   0  -1   7   18.89    0.89
   0  -1   7   19.78    1.10
   1   1  -7   25.84    1.37
   1   1  -7   31.15    1.26
   1   1  -7   29.27    1.45
   1   1  -7   27.44    1.45
  -1  -1   7   27.87    1.26
  -1  -1   7   30.12    1.55
  -1  -1   7   30.86    1.38
  -1  -1   7   28.62    1.44
   2   1  -7   16.63    0.79
   2   1  -7   16.87    0.78
   2   1  -7   14.98    0.69
  -2  -1   7   15.17    0.82
  -2  -1   7   17.14    0.81
  -2  -1   7   15.34    0.70
  -2  -1   7   13.09    0.88
  -3  -1   7   -0.03    0.19
  -3  -1   7    0.02    0.15
  -3  -1   7    0.31    0.19
  -4  -1   7    1.95    0.26
  -4  -1   7    2.87    0.34
  -4  -1   7    2.34    0.32
  -5  -1   7   20.86    1.18
  -5  -1   7   22.69    1.15
  -5  -1   7   20.08    1.09
  -4   2  -7   10.27    0.56
  -3   2  -7   22.68    1.09
  -2   2  -7   39.05    1.81
   2  -2   7   38.60    2.07
  -1   2  -7   56.18    2.55
  -1   2  -7   55.90    2.70
   1  -2   7   53.34    2.89
   0   2  -7    0.32    0.14
   0   2  -7   -0.22    0.17
   0   2  -7   -0.06    0.15
   0  -2   7    0.11    0.19
   0  -2   7   -0.09    0.13
   0  -2   7   -0.08    0.07
   1   2  -7   16.42    0.78
   1   2  -7   16.89    0.85
   1   2  -7   18.27    0.90
  -1  -2   7   18.46    0.98
  -1  -2   7   15.17    0.77
  -1  -2   7   17.34    0.88
  -1  -2   7   17.64    0.86
   2   2  -7   50.64    2.05
   2   2  -7   48.53    2.05
   2   2  -7   48.63    2.37
   2   2  -7   46.88    2.23
  -2  -2   7   47.40    2.54
  -2  -2   7   51.74    2.27
  -2  -2   7   45.45    2.40
  -3  -2   7   88.26    3.71
  -3  -2   7   80.69    3.93
  -3  -2   7   72.09    4.15
  -4  -2   7   72.94    3.67
  -4  -2   7   78.22    3.49
  -4  -2   7   73.47    3.88
  -5  -2   7   37.30    1.84
  -5  -2   7   37.06    1.87
  -4   3  -7   20.55    1.01
  -3   3  -7    2.41    0.27
  -2   3  -7   -0.35    0.20
  -1   3  -7    3.29    0.28
  -1   3  -7    2.40    0.29
  -1   3  -7    3.70    0.28
   1  -3   7    3.84    0.35
   0   3  -7   20.94    0.96
   0   3  -7   22.63    1.05
   0   3  -7   21.79    0.96
   0  -3   7   19.81    1.19
   1   3  -7   91.65    4.22
   1   3  -7   81.11    3.63
   1   3  -7   86.85    3.94
   1   3  -7   86.25    3.63
  -1  -3   7   83.41    4.46
  -1  -3   7   92.65    4.20
  -1  -3   7   82.45    3.96
   2   3  -7    0.61    0.13
   2   3  -7    0.65    0.15
   2   3  -7    0.51    0.10
   2   3  -7    0.77    0.13
  -2  -3   7    0.61    0.18
  -2  -3   7    0.82    0.21
  -2  -3   7    0.54    0.22
  -3  -3   7    0.86    0.24
  -3  -3   7    0.98    0.23
  -3  -3   7    1.03    0.24
  -4  -3   7    2.77    0.33
  -4  -3   7    2.57    0.33
  -4  -3   7    2.78    0.35
  -5  -3   7   10.20    0.63
  -5  -3   7    9.47    0.68
  -3   4  -7   20.03    1.00
  -2   4  -7   22.08    1.09
  -1   4  -7   37.48    1.71
  -1   4  -7   40.83    1.95
  -1   4  -7   37.53    1.84
   1  -4   7   40.74    2.09
   0   4  -7    0.60    0.16
   0   4  -7    0.56    0.18
   0   4  -7    0.87    0.19
   0   4  -7    0.59    0.15
   0  -4   7    0.47    0.22
   1   4  -7   28.15    1.22
   1   4  -7   28.25    1.33
   1   4  -7   29.44    1.41
   1   4  -7   27.77    1.22
  -1  -4   7   24.58    1.52
  -1  -4   7   26.88    1.35
  -1  -4   7   30.54    1.40
   2   4  -7   45.17    2.20
   2   4  -7   44.77    1.89
   2   4  -7   42.05    1.90
   2   4  -7   45.10    2.08
  -2  -4   7   43.32    2.37
  -2  -4   7   50.72    2.24
  -2  -4   7   42.92    2.11
  -3  -4   7   34.54    1.82
  -3  -4   7   40.57    2.04
  -3  -4   7   39.55    1.94
  -4  -4   7   58.49    2.73
  -4  -4   7   57.30    2.89
  -5  -4   7   28.10    1.42
  -5  -4   7   27.54    1.48
  -3   5  -7    2.38    0.29
  -2   5  -7    0.66    0.23
  -1   5  -7    0.72    0.22
  -1   5  -7    1.61    0.24
   0   5  -7   11.55    0.62
   0   5  -7   11.00    0.56
   0   5  -7   11.48    0.64
   0  -5   7   11.71    0.71
   1   5  -7   42.62    2.05
   1   5  -7   42.55    1.77
   1   5  -7   39.54    1.76
   1   5  -7   39.75    1.92
  -1  -5   7   44.08    2.04
  -1  -5   7   39.02    2.18
   2   5  -7    0.70    0.11
   2   5  -7    0.84    0.19
   2   5  -7    0.75    0.15
  -2  -5   7    0.45    0.23
  -2  -5   7    0.73    0.20
  -2  -5   7    0.66    0.23
  -3  -5   7    0.05    0.23
  -3  -5   7   -0.11    0.21
  -3  -5   7    0.00    0.23
  -4  -5   7    2.99    0.39
  -4  -5   7    3.30    0.41
  -5  -5   7    4.03    0.49
  -5  -5   7    4.30    0.48
  -3   6  -7    6.75    0.47
  -2   6  -7    8.07    0.53
  -2   6  -7    9.30    0.53
  -1   6  -7    8.29    0.56
  -1   6  -7   10.15    0.54
   0   6  -7    0.07    0.19
   0   6  -7    0.05    0.16
   0   6  -7    0.19    0.19
   0  -6   7    0.29    0.19
   1   6  -7    9.50    0.56
   1   6  -7    9.63    0.49
   1   6  -7    9.07    0.48
   1   6  -7    9.73    0.56
  -1  -6   7    9.81    0.62
  -1  -6   7   10.70    0.55
   2   6  -7    8.95    0.51
  -2  -6   7    9.11    0.56
  -2  -6   7    9.62    0.56
  -2  -6   7    8.96    0.58
  -3  -6   7   24.42    1.34
  -3  -6   7   23.64    1.22
  -3  -6   7   25.30    1.29
  -4  -6   7   24.04    1.29
  -4  -6   7   24.21    1.24
  -3   7  -7    2.57    0.31
  -2   7  -7    1.45    0.26
  -2   7  -7    0.25    0.23
  -1   7  -7    0.84    0.24
  -1   7  -7    1.15    0.24
   0   7  -7    0.95    0.21
   0   7  -7    0.81    0.22
   1   7  -7    1.07    0.21
   1   7  -7    0.74    0.16
   1   7  -7    0.90    0.22
  -1  -7   7    1.05    0.21
   2   7  -7    1.36    0.20
  -2  -7   7    1.15    0.21
  -2  -7   7    1.00    0.24
  -3  -7   7    1.82    0.31
  -3  -7   7    2.15    0.33
  -4  -7   7    2.35    0.37
  -4  -7   7    2.18    0.35
  -2   8  -7    1.00    0.27
  -2   8  -7    1.21    0.27
  -1   8  -7    1.50    0.28
  -1   8  -7    1.92    0.27
   0   8  -7    1.04    0.25
   0   8  -7    1.11    0.24
   1   8  -7    0.54    0.24
   1   8  -7    0.57    0.17
   1   8  -7    0.67    0.21
   2   8  -7    1.18    0.21
  -2  -8   7    1.02    0.26
  -3  -8   7    7.89    0.58
  -4  -8   7    8.92    0.67
  -1   9  -7    1.00    0.27
  -1   9  -7    0.98    0.28
   0   9  -7    0.56    0.27
   0   9  -7    0.42    0.24
   1   9  -7    0.43    0.21
   2   9  -7    0.40    0.20
  -3  -9   7    2.01    0.36
   0  10  -7    0.58    0.26
   0  10  -7    0.33    0.27
   1  10  -7    0.99    0.25
  -1  -9  -8    7.29    0.56
   0  -9  -8    7.58    0.52
  -1   9   8    6.74    0.53
  -1   9   8    7.77    0.47
  -2   9   8    3.43    0.34
  -2   9   8    3.53    0.40
  -1  -8  -8    1.08    0.30
  -1  -8  -8    1.11    0.29
   0  -8  -8    1.06    0.25
   0   8   8    0.51    0.25
   1  -8  -8    0.28    0.24
  -1   8   8    0.19    0.18
  -1   8   8    0.12    0.22
  -2   8   8    6.37    0.50
  -2   8   8    6.58    0.44
  -3   8   8    2.04    0.31
  -3   8   8    2.11    0.34
  -3   8   8    2.16    0.27
  -2  -7  -8    1.83    0.30
  -2  -7  -8    1.31    0.34
  -1  -7  -8   16.41    0.84
  -1  -7  -8   13.97    0.88
   0  -7  -8   26.43    1.38
   0  -7  -8   28.32    1.35
   0   7   8   26.14    1.48
   1  -7  -8   22.23    1.10
  -1   7   8   20.28    1.06
  -1   7   8   19.66    1.15
  -2   7   8   19.79    0.99
  -2   7   8   19.20    1.00
  -2   7   8   19.25    1.10
  -3   7   8    9.68    0.65
  -3   7   8    9.90    0.57
  -3   7   8    9.43    0.59
  -4   7   8   12.08    0.70
  -4   7   8   11.58    0.78
  -4   7   8   12.08    0.69
  -2  -6  -8    4.43    0.44
  -2  -6  -8    4.58    0.40
  -1  -6  -8    4.00    0.40
  -1  -6  -8    3.36    0.39
   1   6   8    4.22    0.37
   0  -6  -8    1.40    0.22
   0  -6  -8    1.20    0.27
   0   6   8    1.10    0.25
   1  -6  -8    0.95    0.23
  -1   6   8    0.92    0.23
  -1   6   8    0.92    0.18
  -2   6   8    2.06    0.24
  -2   6   8    2.31    0.31
  -2   6   8    2.45    0.30
  -3   6   8   10.00    0.66
  -3   6   8   10.34    0.58
  -3   6   8    9.90    0.59
  -4   6   8    4.74    0.37
  -4   6   8    4.56    0.45
  -4   6   8    4.23    0.41
  -3  -5  -8    0.65    0.26
  -3  -5  -8    0.78    0.27
  -2  -5  -8    0.03    0.25
  -2  -5  -8    0.35    0.23
  -1  -5  -8    9.21    0.55
  -1  -5  -8    7.55    0.56
   1   5   8    9.20    0.57
   0  -5  -8   54.28    2.61
   0  -5  -8   54.97    2.48
   0   5   8   48.85    2.76
   1  -5  -8   53.73    2.58
   1  -5  -8   58.23    2.74
  -1   5   8   53.97    2.89
  -1   5   8   55.20    2.71
  -2   5   8   34.23    1.61
  -2   5   8   32.82    1.80
  -2   5   8   33.61    1.68
  -2   5   8   34.57    1.47
  -3   5   8   33.39    1.67
  -3   5   8   33.34    1.59
  -3   5   8   32.31    1.78
  -3   5   8   34.34    1.45
  -4   5   8   11.34    0.66
  -4   5   8   11.84    0.65
  -4   5   8   11.27    0.72
  -3  -4  -8    0.75    0.25
  -2  -4  -8    7.88    0.49
  -2  -4  -8    7.31    0.52
   2   4   8    8.11    0.56
  -1  -4  -8    5.77    0.47
  -1  -4  -8    7.19    0.48
   1   4   8    7.57    0.47
   0  -4  -8   12.66    0.74
   0  -4  -8   14.57    0.72
   0   4   8   13.67    0.66
   0   4   8   11.83    0.78
   1  -4  -8    3.57    0.34
   1  -4  -8    3.70    0.34
  -1   4   8    3.31    0.27
  -1   4   8    3.57    0.28
  -1   4   8    3.69    0.32
  -1   4   8    3.43    0.33
   2  -4  -8    0.43    0.15
  -2   4   8    0.45    0.16
  -2   4   8    0.39    0.14
  -2   4   8    0.57    0.19
  -2   4   8    0.30    0.20
  -3   4   8   26.71    1.47
  -3   4   8   26.71    1.36
  -3   4   8   27.15    1.19
  -3   4   8   27.61    1.32
  -4   4   8   18.79    0.97
  -4   4   8   18.47    1.06
  -4   4   8   18.81    0.97
  -5   4   8    6.83    0.55
  -5   4   8    7.00    0.45
  -5   4   8    7.05    0.51
  -3  -3  -8    0.92    0.25
  -2  -3  -8   -0.07    0.22
  -2  -3  -8    0.55    0.22
   2   3   8   -0.04    0.22
  -1  -3  -8   13.76    0.84
  -1  -3  -8   15.47    0.81
   1   3   8   16.66    0.88
   0  -3  -8   88.39    4.06
   0  -3  -8   93.03    4.32
   0   3   8   86.51    3.76
   0   3   8   85.79    4.57
   1  -3  -8  125.71    5.88
   1  -3  -8  125.87    5.49
  -1   3   8  116.26    5.07
  -1   3   8  118.38    5.49
  -1   3   8  117.73    5.86
  -1   3   8  119.18    6.19
   2  -3  -8   56.05    2.70
   2  -3  -8   54.96    2.34
  -2   3   8   55.28    2.56
  -2   3   8   54.96    2.70
  -2   3   8   54.90    2.87
  -2   3   8   54.33    2.34
  -3   3   8   53.08    2.46
  -3   3   8   51.95    2.75
  -3   3   8   51.80    2.59
  -3   3   8   53.93    2.24
  -4   3   8   12.18    0.71
  -4   3   8   12.90    0.76
  -4   3   8   13.02    0.69
  -5   3   8    0.11    0.21
  -5   3   8    0.16    0.26
  -5   3   8    0.10    0.26
  -3  -2  -8    6.78    0.48
  -2  -2  -8   23.39    1.17
  -2  -2  -8   22.07    1.13
  -1  -2  -8   13.41    0.77
  -1  -2  -8   12.37    0.74
   1   2   8   16.05    0.83
   0  -2  -8    4.93    0.37
   0  -2  -8    4.59    0.33
   0   2   8    4.60    0.36
   0   2   8    4.35    0.32
   1  -2  -8    0.71    0.20
   1  -2  -8    0.22    0.17
   1  -2  -8    0.63    0.18
  -1   2   8    0.67    0.21
  -1   2   8    0.58    0.15
  -1   2   8    0.50    0.16
  -1   2   8    0.71    0.20
   2  -2  -8    4.29    0.27
   2  -2  -8    4.02    0.29
   2  -2  -8    2.89    0.35
  -2   2   8    3.63    0.29
  -2   2   8    3.72    0.27
  -2   2   8    3.55    0.33
  -2   2   8    3.99    0.34
  -3   2   8   38.19    2.00
  -3   2   8   36.31    1.79
  -3   2   8   38.10    1.87
  -3   2   8   38.44    1.62
  -4   2   8   34.63    1.74
  -4   2   8   37.01    1.94
  -4   2   8   36.84    1.80
  -5   2   8   15.28    0.81
  -5   2   8   14.35    0.85
  -5   2   8   15.32    0.91
  -3  -1  -8   -0.02    0.24
  -2  -1  -8    0.43    0.23
   2   1   8    0.16    0.23
  -1  -1  -8   62.50    2.93
  -1  -1  -8   60.05    3.12
   1   1   8   64.57    2.72
   1   1   8   66.93    3.31
   0  -1  -8  137.43    6.23
   0  -1  -8  139.97    6.67
   0   1   8  134.79    5.76
   0   1   8  136.83    7.03
   1  -1  -8  163.75    7.97
   1  -1  -8  186.17    7.46
   1  -1  -8  163.47    6.88
  -1   1   8  158.33    7.96
  -1   1   8  165.01    6.87
  -1   1   8  171.38    7.46
  -1   1   8  140.68    8.39
   2  -1  -8   76.03    4.09
   2  -1  -8   93.38    3.75
   2  -1  -8   97.03    4.35
  -2   1   8   84.21    3.76
  -2   1   8   94.90    4.36
  -2   1   8   84.22    4.10
  -2   1   8   94.67    4.61
  -3   1   8   29.82    1.56
  -3   1   8   33.62    1.73
  -3   1   8   33.18    1.61
  -4   1   8   22.23    1.24
  -4   1   8   25.56    1.26
  -4   1   8   25.92    1.36
  -5   1   8   -0.19    0.25
  -5   1   8   -0.04    0.29
  -5   1   8    0.26    0.20
  -3   0  -8   15.03    0.80
  -2   0  -8   35.11    1.52
   2   0   8   28.43    1.73
  -1   0  -8   22.68    1.18
  -1   0  -8   22.62    1.12
   1   0   8   23.12    1.29
   1   0   8   24.27    1.07
   0   0  -8    0.81    0.19
   0   0  -8    0.79    0.21
   0   0   8    0.92    0.16
   0   0   8    1.30    0.22
   1   0  -8    0.98    0.23
   1   0  -8   -0.21    0.15
  -1   0   8    0.05    0.17
  -1   0   8    0.18    0.18
  -1   0   8    0.11    0.14
  -1   0   8    0.26    0.13
   2   0  -8   19.49    0.91
   2   0  -8   21.90    1.04
   2   0  -8   19.27    1.02
  -2   0   8   21.80    0.91
  -2   0   8   20.60    1.03
  -2   0   8   20.26    1.05
  -2   0   8   18.96    1.14
  -3   0   8   40.11    2.14
  -3   0   8   40.11    1.93
  -3   0   8   40.93    2.01
  -4   0   8   45.77    2.44
  -4   0   8   47.02    2.28
  -4   0   8   45.59    2.21
  -5   0   8   21.02    1.12
  -5   0   8   22.30    1.16
  -5   0   8   21.67    1.22
  -3   1  -8    0.12    0.21
  -2   1  -8    0.91    0.20
   2  -1   8    0.39    0.26
  -1   1  -8   66.58    2.84
  -1   1  -8   61.84    3.02
   1  -1   8   53.50    3.22
   1  -1   8   64.46    2.66
   0   1  -8  149.28    6.85
   0   1  -8  137.21    6.40
   0   1  -8  135.99    5.91
   0  -1   8  143.66    7.23
   0  -1   8  138.52    5.92
   1   1  -8  195.66    7.42
   1   1  -8  144.85    8.04
  -1  -1   8  183.95    9.07
  -1  -1   8  173.23    8.59
  -1  -1   8  186.49    8.04
  -1  -1   8  180.19    7.42
   2   1  -8   76.97    3.71
   2   1  -8   93.23    4.05
   2   1  -8   97.84    4.31
  -2  -1   8   91.74    3.72
  -2  -1   8   85.57    4.33
  -2  -1   8   79.90    4.57
  -2  -1   8   93.60    4.06
  -3  -1   8   34.57    1.56
  -3  -1   8   30.05    1.74
  -3  -1   8   32.27    1.63
  -4  -1   8   26.70    1.31
  -4  -1   8   25.28    1.42
  -4  -1   8   25.42    1.32
  -5  -1   8    0.20    0.25
  -5  -1   8    0.13    0.31
  -5  -1   8    0.18    0.22
  -3   2  -8    6.43    0.42
  -2   2  -8   22.62    1.06
   2  -2   8   20.47    1.24
  -1   2  -8   14.22    0.72
  -1   2  -8   15.08    0.72
   1  -2   8   10.98    0.81
   0   2  -8    3.91    0.32
   0   2  -8    3.37    0.36
   0  -2   8    3.03    0.30
   1   2  -8    0.29    0.21
   1   2  -8    0.60    0.15
   1   2  -8    0.60    0.19
  -1  -2   8    0.64    0.13
  -1  -2   8    0.11    0.14
  -1  -2   8    0.35    0.18
  -1  -2   8    1.15    0.23
   2   2  -8    3.51    0.26
   2   2  -8    3.58    0.27
   2   2  -8    4.22    0.34
   2   2  -8    4.18    0.29
  -2  -2   8    3.75    0.33
  -2  -2   8    3.83    0.35
  -2  -2   8    3.73    0.34
  -3  -2   8   36.66    1.82
  -3  -2   8   40.40    1.74
  -3  -2   8   31.31    1.92
  -4  -2   8   33.08    1.94
  -4  -2   8   39.56    1.78
  -4  -2   8   36.42    1.83
  -5  -2   8   15.23    0.86
  -5  -2   8   15.87    0.92
  -3   3  -8    0.68    0.25
  -2   3  -8   -0.35    0.21
  -1   3  -8   17.07    0.84
  -1   3  -8   14.65    0.83
   1  -3   8   15.03    0.95
   0   3  -8   85.76    3.54
   0   3  -8   81.21    3.83
   0   3  -8   85.62    4.08
   0  -3   8   80.53    4.33
   1   3  -8  122.02    5.83
   1   3  -8  112.13    5.02
   1   3  -8  116.40    5.02
   1   3  -8  119.50    5.45
  -1  -3   8  123.67    6.15
  -1  -3   8  123.50    5.80
   2   3  -8   54.72    2.60
   2   3  -8   57.13    2.76
   2   3  -8   55.76    2.37
  -2  -3   8   58.11    2.63
  -2  -3   8   57.27    2.95
  -2  -3   8   54.51    2.77
  -3  -3   8   53.66    2.79
  -3  -3   8   55.70    2.50
  -3  -3   8   49.78    2.64
  -4  -3   8   12.24    0.75
  -4  -3   8   12.93    0.79
  -4  -3   8   12.83    0.77
  -5  -3   8    0.08    0.26
  -5  -3   8   -0.25    0.34
  -3   4  -8   -0.04    0.26
  -2   4  -8    5.46    0.43
  -1   4  -8    6.87    0.43
  -1   4  -8    5.62    0.47
   1  -4   8    6.77    0.54
   0   4  -8   14.21    0.73
   0   4  -8   13.97    0.68
   0  -4   8   12.75    0.85
   1   4  -8    3.40    0.31
   1   4  -8    3.35    0.26
   1   4  -8    3.17    0.26
   1   4  -8    4.07    0.33
  -1  -4   8    2.81    0.38
  -1  -4   8    3.40    0.25
   2   4  -8    0.73    0.17
   2   4  -8    0.68    0.20
  -2  -4   8    1.03    0.24
  -2  -4   8   -0.08    0.23
  -2  -4   8    0.55    0.18
  -3  -4   8   27.45    1.45
  -3  -4   8   26.75    1.40
  -3  -4   8   30.45    1.55
  -4  -4   8   17.32    1.03
  -4  -4   8   21.46    1.10
  -4  -4   8   17.70    1.04
  -5  -4   8    5.14    0.57
  -5  -4   8    6.32    0.52
  -3   5  -8    0.10    0.27
  -2   5  -8   -0.32    0.24
  -1   5  -8    7.49    0.51
  -1   5  -8    8.27    0.52
   0   5  -8   55.21    2.54
   0   5  -8   50.38    2.70
   0   5  -8   57.51    2.35
   0  -5   8   54.74    2.88
   1   5  -8   56.63    2.64
   1   5  -8   53.21    2.47
   1   5  -8   53.82    2.27
   1   5  -8   54.54    2.27
  -1  -5   8   47.70    2.80
   2   5  -8   35.95    1.70
  -2  -5   8   28.45    1.82
  -2  -5   8   37.21    1.71
  -3  -5   8   35.23    1.69
  -3  -5   8   30.62    1.62
  -3  -5   8   33.14    1.79
  -4  -5   8   11.49    0.69
  -4  -5   8    9.92    0.71
  -2   6  -8    3.76    0.39
  -2   6  -8    4.61    0.42
  -1   6  -8    2.16    0.29
   0   6  -8    1.42    0.25
   0   6  -8    1.43    0.27
   0  -6   8    1.31    0.28
   1   6  -8    1.20    0.23
   1   6  -8    0.80    0.17
   1   6  -8    0.86    0.22
  -1  -6   8    0.69    0.26
   2   6  -8    2.81    0.28
  -2  -6   8    2.61    0.31
  -2  -6   8    2.14    0.31
  -3  -6   8    9.78    0.67
  -3  -6   8   11.12    0.64
  -3  -6   8    9.40    0.64
  -4  -6   8    3.87    0.49
  -4  -6   8    4.88    0.44
  -2   7  -8    0.97    0.28
  -2   7  -8    2.03    0.32
  -1   7  -8   13.59    0.83
  -1   7  -8   15.98    0.81
   0   7  -8   27.59    1.42
   0   7  -8   27.45    1.35
   1   7  -8   19.96    0.93
   1   7  -8   20.97    1.07
   1   7  -8   20.51    1.02
  -1  -7   8   19.61    1.16
   2   7  -8   20.60    1.08
  -2  -7   8   20.51    1.17
  -2  -7   8   21.23    1.09
  -3  -7   8   10.43    0.66
  -4  -7   8   11.88    0.74
  -1   8  -8    1.18    0.29
  -1   8  -8    1.28    0.30
   0   8  -8    0.98    0.28
   0   8  -8    1.16    0.26
   1   8  -8    0.33    0.23
   2   8  -8    7.06    0.45
  -2  -8   8    6.54    0.50
  -3  -8   8    2.02    0.33
  -1   9  -8    8.29    0.59
  -1   9  -8    8.51    0.59
   0   9  -8    8.04    0.58
   0   9  -8    8.14    0.56
   1   9  -8    7.82    0.53
   2   9  -8    3.86    0.37
  -1   9   9    1.69    0.32
  -1  -8  -9    5.89    0.51
  -1  -8  -9    7.67    0.55
   0  -8  -9    8.64    0.56
   0   8   9    8.65    0.63
   1  -8  -9    6.75    0.48
  -1   8   9    6.04    0.51
  -2   8   9    0.59    0.26
  -2   8   9    0.77    0.23
  -3   8   9    0.19    0.24
  -3   8   9    0.30    0.29
  -1  -7  -9    0.44    0.28
  -1  -7  -9    0.55    0.31
   0  -7  -9    0.94    0.24
   0   7   9    0.78    0.27
   1  -7  -9    4.57    0.40
  -1   7   9    3.93    0.42
  -2   7   9    1.27    0.28
  -2   7   9    1.59    0.23
  -3   7   9    0.12    0.26
  -3   7   9    0.30    0.25
  -3   7   9    0.24    0.22
  -2  -6  -9   14.57    0.91
  -2  -6  -9   16.15    0.86
  -1  -6  -9   21.42    1.10
  -1  -6  -9   20.15    1.13
   1   6   9   21.26    1.17
   0  -6  -9   13.18    0.75
   0  -6  -9   12.94    0.71
   0   6   9   11.36    0.77
   1  -6  -9   10.01    0.59
  -1   6   9    9.06    0.63
  -1   6   9    9.29    0.55
  -2   6   9    0.28    0.23
  -2   6   9    0.06    0.19
  -3   6   9    0.25    0.21
  -3   6   9    0.32    0.23
  -3   6   9    0.11    0.25
  -4   6   9    8.84    0.55
  -4   6   9    8.72    0.64
  -4   6   9    8.80    0.57
  -2  -5  -9    0.99    0.33
  -2  -5  -9    1.26    0.32
  -1  -5  -9    1.22    0.29
  -1  -5  -9    1.18    0.28
   1   5   9    1.72    0.25
   0  -5  -9   17.28    0.88
   0  -5  -9   15.99    0.90
   0   5   9   15.51    0.96
   1  -5  -9    0.43    0.22
  -1   5   9    0.59    0.24
  -1   5   9    0.46    0.18
  -2   5   9   10.00    0.56
  -2   5   9    9.61    0.58
  -2   5   9    9.68    0.64
  -3   5   9    3.90    0.38
  -3   5   9    3.58    0.31
  -3   5   9    3.50    0.36
  -4   5   9    0.14    0.26
  -4   5   9   -0.04    0.25
  -4   5   9    0.06    0.21
  -3  -4  -9   16.55    0.87
  -3  -4  -9   14.92    0.88
  -2  -4  -9   31.01    1.58
   2   4   9   33.48    1.76
  -1  -4  -9   39.10    1.93
  -1  -4  -9   39.09    2.03
   1   4   9   42.15    2.13
   0  -4  -9   24.73    1.24
   0  -4  -9   24.03    1.21
   0   4   9   23.36    1.33
   1  -4  -9    4.22    0.37
   1  -4  -9    4.20    0.39
  -1   4   9    4.31    0.32
  -1   4   9    4.53    0.42
   2  -4  -9    0.35    0.17
  -2   4   9    0.61    0.22
  -2   4   9    0.60    0.19
  -2   4   9    0.61    0.17
  -2   4   9    0.65    0.23
  -3   4   9    4.27    0.40
  -3   4   9    4.23    0.38
  -3   4   9    3.87    0.33
  -4   4   9   12.91    0.74
  -4   4   9   12.63    0.80
  -4   4   9   13.02    0.71
  -3  -3  -9    6.11    0.50
  -2  -3  -9    1.66    0.31
  -2  -3  -9    1.70    0.30
   2   3   9    2.22    0.32
  -1  -3  -9    2.94    0.34
  -1  -3  -9    2.21    0.32
   1   3   9    3.76    0.34
   0  -3  -9   32.65    1.57
   0  -3  -9   32.52    1.64
   0   3   9   32.76    1.76
   1  -3  -9    0.88    0.21
   1  -3  -9    0.80    0.21
  -1   3   9    0.68    0.24
  -1   3   9    1.17    0.19
  -1   3   9    0.84    0.19
   2  -3  -9   18.65    1.14
  -2   3   9   23.96    1.25
  -2   3   9   23.27    1.12
  -2   3   9   22.92    1.02
  -2   3   9   22.89    1.14
  -3   3   9   15.20    0.90
  -3   3   9   15.32    0.84
  -3   3   9   15.38    0.81
  -4   3   9    0.11    0.19
  -4   3   9    0.12    0.24
  -4   3   9   -0.05    0.25
  -5   3   9   15.39    0.93
  -5   3   9   14.91    0.82
  -5   3   9   14.86    0.87
  -3  -2  -9   19.04    1.02
  -2  -2  -9   45.64    2.26
  -2  -2  -9   48.46    2.40
   2   2   9   49.73    2.56
  -1  -2  -9   54.38    2.79
  -1  -2  -9   54.96    2.63
   1   2   9   59.98    2.96
   0  -2  -9   75.26    3.62
   0  -2  -9   74.07    3.40
   0   2   9   74.05    3.83
   0   2   9   71.92    3.15
   1  -2  -9   15.97    0.77
   1  -2  -9   15.26    0.79
  -1   2   9   12.25    0.85
  -1   2   9   14.82    0.71
  -1   2   9   14.30    0.77
   2  -2  -9    0.89    0.19
   2  -2  -9    0.77    0.17
  -2   2   9    0.93    0.23
  -2   2   9    0.80    0.16
  -2   2   9    0.69    0.24
  -2   2   9    0.98    0.20
  -3   2   9    4.68    0.41
  -3   2   9    4.41    0.34
  -3   2   9    4.06    0.41
  -4   2   9   14.47    0.86
  -4   2   9   14.21    0.77
  -4   2   9   13.34    0.80
  -5   2   9   15.97    0.84
  -5   2   9   15.65    0.94
  -5   2   9   14.43    0.89
  -3  -1  -9   11.82    0.71
  -2  -1  -9    8.73    0.54
  -2  -1  -9    8.45    0.55
   2   1   9    7.68    0.61
  -1  -1  -9    4.92    0.38
  -1  -1  -9    5.51    0.41
   1   1   9    6.23    0.46
   0  -1  -9   12.58    0.69
   0  -1  -9   12.11    0.67
   0   1   9   12.83    0.62
   0   1   9   12.56    0.75
   1  -1  -9   15.78    0.85
   1  -1  -9   16.99    0.83
  -1   1   9   14.24    0.92
  -1   1   9   15.76    0.81
  -1   1   9   15.28    0.73
   2  -1  -9   28.74    1.45
   2  -1  -9   28.96    1.26
  -2   1   9   27.85    1.25
  -2   1   9   27.59    1.57
  -2   1   9   29.27    1.45
  -2   1   9   28.95    1.41
  -3   1   9   26.50    1.44
  -3   1   9   30.50    1.48
  -3   1   9   30.58    1.60
  -4   1   9   -0.08    0.19
  -4   1   9   -0.05    0.26
  -4   1   9    0.05    0.24
  -5   1   9   15.63    0.96
  -5   1   9   15.43    0.86
  -5   1   9   16.18    0.92
  -3   0  -9   20.73    1.05
  -2   0  -9   63.82    2.69
  -2   0  -9   60.34    2.87
   2   0   9   49.14    3.05
  -1   0  -9   60.08    2.80
  -1   0  -9   58.53    2.98
   1   0   9   63.67    3.19
   0   0  -9  124.18    5.71
   0   0  -9  128.97    6.10
   0   0   9  124.93    5.27
   0   0   9  123.32    6.43
   1   0  -9   33.25    1.79
   1   0  -9   36.07    1.70
   1   0  -9   39.37    1.57
  -1   0   9   35.04    1.90
  -1   0   9   35.82    1.55
  -1   0   9   33.73    1.75
   2   0  -9    6.29    0.40
  -2   0   9    6.39    0.34
  -2   0   9    4.71    0.46
  -2   0   9    5.53    0.42
  -2   0   9    5.55    0.41
  -3   0   9    2.66    0.33
  -3   0   9    3.02    0.36
  -3   0   9    2.60    0.29
  -4   0   9   14.56    0.90
  -4   0   9   15.22    0.84
  -4   0   9   14.74    0.81
  -5   0   9   17.09    0.94
  -5   0   9   17.71    0.98
  -5   0   9   17.21    1.05
  -3   1  -9   11.45    0.64
  -2   1  -9    8.48    0.51
  -1   1  -9    5.01    0.36
  -1   1  -9    4.88    0.40
   1  -1   9    5.43    0.47
   0   1  -9   11.95    0.69
   0   1  -9   12.45    0.69
   0  -1   9   12.74    0.75
   0  -1   9   12.22    0.63
   1   1  -9   15.85    0.84
   1   1  -9   12.94    0.83
   1   1  -9   13.16    0.84
   1   1  -9   16.89    0.74
  -1  -1   9   16.35    0.90
  -1  -1   9   16.97    0.73
  -1  -1   9   15.44    0.78
   2   1  -9   27.11    1.40
   2   1  -9   30.90    1.46
  -2  -1   9   28.86    1.39
  -2  -1   9   29.96    1.26
  -2  -1   9   28.04    1.46
  -2  -1   9   27.39    1.57
  -3  -1   9   28.19    1.42
  -3  -1   9   24.99    1.52
  -3  -1   9   29.80    1.36
  -4  -1   9    0.15    0.25
  -4  -1   9   -0.03    0.25
  -4  -1   9    0.09    0.21
  -5  -1   9   15.01    0.97
  -5  -1   9   16.17    0.91
  -5  -1   9   15.70    0.87
  -3   2  -9   19.10    0.96
  -2   2  -9   50.82    2.13
   2  -2   9   39.71    2.44
  -1   2  -9   60.35    2.59
  -1   2  -9   58.03    2.74
   1  -2   9   48.48    2.94
   0   2  -9   72.87    3.47
   0   2  -9   76.61    3.69
   0  -2   9   78.29    3.92
   0  -2   9   72.69    3.21
   1   2  -9   15.75    0.71
   1   2  -9   11.89    0.78
  -1  -2   9   16.49    0.88
  -1  -2   9   14.09    0.72
  -1  -2   9   15.17    0.75
   2   2  -9    0.65    0.16
   2   2  -9    1.41    0.21
   2   2  -9    1.03    0.24
  -2  -2   9    1.19    0.20
  -2  -2   9    1.23    0.25
  -2  -2   9    0.96    0.22
  -3  -2   9    4.40    0.42
  -3  -2   9    4.75    0.39
  -3  -2   9    4.16    0.39
  -4  -2   9   11.90    0.85
  -4  -2   9   15.29    0.79
  -4  -2   9   13.87    0.78
  -5  -2   9   17.11    0.96
  -5  -2   9   15.63    0.92
  -3   3  -9    5.19    0.43
  -2   3  -9    1.46    0.28
  -1   3  -9    2.68    0.31
  -1   3  -9    2.47    0.31
   1  -3   9    1.74    0.34
   0   3  -9   33.37    1.57
   0   3  -9   27.06    1.37
   0   3  -9   28.96    1.49
   0  -3   9   33.26    1.70
   1   3  -9    0.70    0.18
   1   3  -9    0.63    0.22
   1   3  -9    0.34    0.19
   1   3  -9    0.46    0.24
  -1  -3   9    1.23    0.26
   2   3  -9   25.62    1.26
  -2  -3   9   24.02    1.25
  -2  -3   9   24.11    1.36
  -3  -3   9   16.18    0.86
  -3  -3   9   15.23    0.87
  -3  -3   9   15.74    0.93
  -4  -3   9   -0.14    0.26
  -4  -3   9    0.28    0.26
  -4  -3   9    0.02    0.30
  -5  -3   9   13.96    0.88
  -5  -3   9   15.81    0.92
  -3   4  -9   13.69    0.78
  -2   4  -9   27.59    1.37
  -1   4  -9   34.86    1.79
  -1   4  -9   41.58    1.87
   1  -4   9   34.80    2.04
   0   4  -9   22.11    1.15
   0   4  -9   21.99    1.11
   0  -4   9   20.78    1.26
   1   4  -9    4.22    0.38
   1   4  -9    3.97    0.32
   1   4  -9    4.17    0.38
  -1  -4   9    4.00    0.43
   2   4  -9    1.01    0.21
  -2  -4   9    0.67    0.19
  -2  -4   9    0.84    0.26
  -3  -4   9    3.83    0.42
  -3  -4   9    3.86    0.38
  -3  -4   9    5.04    0.42
  -4  -4   9   15.29    0.86
  -4  -4   9   12.75    0.80
  -4  -4   9   12.81    0.83
  -2   5  -9   -0.17    0.29
  -2   5  -9    0.85    0.23
  -1   5  -9    1.07    0.26
  -1   5  -9    0.69    0.29
  -1   5  -9    1.07    0.24
   1  -5   9    0.58    0.32
   0   5  -9   17.14    0.82
   0   5  -9   12.60    0.83
   0  -5   9   15.22    0.94
   1   5  -9    0.52    0.24
   1   5  -9    0.70    0.23
   1   5  -9    0.70    0.19
  -1  -5   9    0.10    0.27
   2   5  -9   10.64    0.59
  -2  -5   9    9.09    0.68
  -2  -5   9   10.05    0.58
  -3  -5   9    3.89    0.38
  -3  -5   9    3.92    0.43
  -4  -5   9   -0.84    0.32
  -4  -5   9    0.24    0.27
  -2   6  -9   14.40    0.87
  -2   6  -9   16.77    0.88
  -1   6  -9   16.96    1.00
  -1   6  -9   19.43    0.99
   0   6  -9   11.22    0.73
   0   6  -9   13.84    0.72
   1   6  -9    9.74    0.58
   1   6  -9    9.54    0.59
  -1  -6   9    7.48    0.65
   2   6  -9    0.20    0.22
  -2  -6   9   -0.29    0.25
  -2  -6   9    0.30    0.19
  -3  -6   9    0.03    0.23
  -3  -6   9   -0.18    0.26
  -4  -6   9    9.03    0.61
  -1   7  -9    0.28    0.30
  -1   7  -9   -0.58    0.28
   0   7  -9    0.91    0.28
   0   7  -9    0.82    0.28
   1   7  -9    4.99    0.44
   1   7  -9    4.95    0.46
   2   7  -9    1.75    0.26
  -2  -7   9    1.11    0.31
  -3  -7   9    0.14    0.25
  -1   8  -9    7.33    0.54
  -1   8  -9    4.99    0.50
   0   8  -9    9.17    0.64
   0   8  -9   10.05    0.65
   1   8  -9    6.86    0.52
   2   8  -9    1.06    0.26
  -2  -8   9    0.56    0.27
  -3  -8   9    0.02    0.26
   1   9  -9    2.20    0.33
  -1   8  10    2.83    0.40
  -1  -7 -10    0.20    0.27
   0  -7 -10    0.02    0.23
   0   7  10    0.09    0.25
   1  -7 -10    4.07    0.38
  -1   7  10    3.85    0.47
  -2   7  10    5.70    0.42
  -2   7  10    5.39    0.49
  -3   7  10   15.59    0.97
  -3   7  10   16.03    0.87
  -1  -6 -10    3.31    0.41
  -1  -6 -10    3.58    0.38
   0  -6 -10    0.41    0.23
   0  -6 -10    0.65    0.32
   0   6  10    0.32    0.25
   1  -6 -10    0.30    0.23
  -1   6  10    0.43    0.27
  -2   6  10    3.47    0.41
  -2   6  10    3.49    0.34
  -3   6  10    5.11    0.48
  -3   6  10    5.42    0.40
  -2  -5 -10    3.64    0.46
  -2  -5 -10    4.51    0.48
  -1  -5 -10    0.30    0.29
  -1  -5 -10    0.57    0.27
   1   5  10    0.71    0.24
   0  -5 -10    2.01    0.33
   0  -5 -10    2.24    0.29
   0   5  10    2.11    0.33
   1  -5 -10   11.96    0.66
  -1   5  10   10.36    0.75
  -2   5  10   28.55    1.59
  -2   5  10   28.90    1.46
  -3   5  10   24.91    1.24
  -3   5  10   24.97    1.26
  -3   5  10   23.51    1.36
  -4   5  10    3.76    0.36
  -4   5  10    3.36    0.40
  -4   5  10    3.91    0.41
  -2  -4 -10    2.42    0.37
  -2  -4 -10    2.19    0.37
  -1  -4 -10   24.45    1.30
  -1  -4 -10   23.92    1.27
   1   4  10   26.15    1.37
   0  -4 -10    0.58    0.22
   0  -4 -10    0.56    0.28
   0   4  10    0.54    0.24
   1  -4 -10    2.47    0.30
  -1   4  10    1.89    0.33
   2  -4 -10    2.34    0.28
  -2   4  10    3.29    0.31
  -2   4  10    2.88    0.35
  -3   4  10   11.93    0.79
  -3   4  10   13.25    0.74
  -3   4  10   12.77    0.70
  -4   4  10   31.72    1.60
  -4   4  10   31.76    1.58
  -4   4  10   31.30    1.74
  -2  -3 -10    5.91    0.52
  -2  -3 -10    6.08    0.53
   2   3  10    7.71    0.55
  -1  -3 -10    0.23    0.23
  -1  -3 -10   -0.02    0.27
   1   3  10    0.39    0.21
   0  -3 -10    6.46    0.43
   0  -3 -10    6.68    0.48
   0   3  10    6.48    0.50
   1  -3 -10   23.64    1.10
   1  -3 -10   23.00    1.14
  -1   3  10   18.80    1.24
  -2   3  10   56.95    3.04
  -2   3  10   57.80    2.83
  -3   3  10   29.99    1.54
  -3   3  10   31.52    1.58
  -3   3  10   32.32    1.72
  -4   3  10    8.63    0.63
  -4   3  10    8.56    0.54
  -4   3  10    8.53    0.61
  -2  -2 -10    4.76    0.46
  -2  -2 -10    5.18    0.47
   2   2  10    6.21    0.51
  -1  -2 -10   18.12    0.99
  -1  -2 -10   18.00    0.96
   1   2  10   19.78    1.07
   0  -2 -10    2.15    0.28
   0  -2 -10    1.76    0.25
   0   2  10    2.32    0.32
   1  -2 -10    0.75    0.24
   1  -2 -10    0.96    0.22
  -1   2  10    0.71    0.24
   2  -2 -10    0.27    0.21
  -2   2  10    0.68    0.27
  -2   2  10    0.82    0.22
  -2   2  10    1.12    0.19
  -3   2  10   20.23    1.15
  -3   2  10   19.98    1.04
  -3   2  10   18.60    1.03
  -4   2  10   52.08    2.64
  -4   2  10   58.13    2.95
  -4   2  10   56.38    2.76
  -2  -1 -10    1.43    0.30
  -2  -1 -10    1.19    0.27
   2   1  10    1.44    0.32
  -1  -1 -10    0.39    0.21
  -1  -1 -10    0.23    0.23
   1   1  10    0.65    0.24
   0  -1 -10    4.51    0.37
   0  -1 -10    4.39    0.39
   0   1  10    4.98    0.41
   1  -1 -10   45.65    2.20
   1  -1 -10   45.41    2.08
  -1   1  10   42.11    1.90
  -1   1  10   42.56    2.34
  -2   1  10   45.16    2.19
  -2   1  10   38.59    2.34
  -2   1  10   47.09    1.89
  -3   1  10   42.46    2.28
  -3   1  10   42.29    2.04
  -3   1  10   42.12    2.12
  -4   1  10   14.39    0.80
  -4   1  10   13.63    0.82
  -4   1  10   14.67    0.90
  -2   0 -10    7.02    0.48
  -2   0 -10    6.97    0.49
   2   0  10    6.20    0.58
  -1   0 -10    6.45    0.45
  -1   0 -10    6.32    0.44
   1   0  10    7.48    0.54
   0   0 -10    6.51    0.45
   0   0 -10    7.34    0.47
   0   0  10    6.69    0.51
   1   0 -10    0.79    0.20
   1   0 -10    0.03    0.23
   1   0 -10    0.21    0.25
  -1   0  10    0.64    0.23
  -1   0  10    0.48    0.16
   2   0 -10   -0.14    0.19
  -2   0  10   -0.15    0.19
  -2   0  10    0.15    0.24
  -2   0  10    0.27    0.14
  -3   0  10   19.55    1.22
  -3   0  10   21.35    1.13
  -3   0  10   22.41    1.09
  -4   0  10   69.20    3.38
  -4   0  10   66.15    3.59
  -4   0  10   69.57    3.20
  -5   0  10   55.76    2.75
  -5   0  10   54.39    2.94
  -2   1 -10    1.44    0.27
  -2   1 -10    1.36    0.24
   2  -1  10    0.97    0.34
  -1   1 -10    0.39    0.24
  -1   1 -10    0.66    0.21
   1  -1  10    0.76    0.25
   0   1 -10    4.93    0.38
   0   1 -10    4.86    0.42
   0  -1  10    4.59    0.43
   1   1 -10   45.18    2.23
   1   1 -10   44.52    2.11
   1   1 -10   43.89    2.23
  -1  -1  10   43.16    2.35
  -1  -1  10   45.22    1.93
   2   1 -10   43.12    2.28
  -2  -1  10   47.20    2.27
  -2  -1  10   46.54    2.43
  -3  -1  10   36.32    2.13
  -3  -1  10   42.22    1.89
  -3  -1  10   40.10    2.01
  -4  -1  10   13.71    0.79
  -4  -1  10   12.07    0.85
  -4  -1  10   14.02    0.78
  -2   2 -10    5.17    0.42
  -2   2 -10    4.89    0.39
  -1   2 -10   18.54    0.95
  -1   2 -10   18.97    0.97
   1  -2  10   17.44    1.10
   0   2 -10    2.06    0.26
   0   2 -10    2.17    0.32
   0  -2  10    2.52    0.33
   1   2 -10    0.22    0.24
   1   2 -10   -0.07    0.28
  -1  -2  10   -0.23    0.19
  -1  -2  10    0.88    0.25
   2   2 -10    1.03    0.24
  -2  -2  10    1.14    0.26
  -2  -2  10    1.01    0.20
  -3  -2  10   19.16    1.04
  -3  -2  10   20.41    1.01
  -3  -2  10   18.40    1.12
  -4  -2  10   52.74    2.74
  -4  -2  10   59.44    2.59
  -4  -2  10   51.20    2.89
  -2   3 -10    6.69    0.46
  -2   3 -10    6.64    0.50
  -1   3 -10   -0.14    0.22
  -1   3 -10   -0.45    0.26
   1  -3  10    0.31    0.30
   0   3 -10    5.55    0.48
   0   3 -10    6.36    0.46
   0   3 -10    6.64    0.45
   0  -3  10    6.53    0.51
   1   3 -10   19.91    0.88
   1   3 -10   16.95    1.00
   1   3 -10   17.94    0.97
   2   3 -10   60.13    2.95
  -2  -3  10   58.73    2.92
  -2  -3  10   59.61    3.12
  -3  -3  10   31.45    1.72
  -3  -3  10   31.48    1.61
  -4  -3  10    7.97    0.60
  -4  -3  10    8.99    0.63
  -4  -3  10    9.35    0.62
  -2   4 -10    2.34    0.37
  -2   4 -10    2.72    0.34
  -1   4 -10   22.88    1.15
  -1   4 -10   24.82    1.17
   1  -4  10   18.47    1.31
   0   4 -10   -0.66    0.28
   0   4 -10    0.31    0.25
   0  -4  10    0.26    0.27
   1   4 -10    1.17    0.28
   1   4 -10    2.01    0.33
   1   4 -10    1.64    0.24
   2   4 -10    3.86    0.39
  -2  -4  10    3.83    0.41
  -2  -4  10    3.04    0.31
  -3  -4  10   13.12    0.77
  -3  -4  10   14.10    0.85
  -4  -4  10   30.29    1.65
  -4  -4  10   33.56    1.75
  -2   5 -10    3.89    0.38
  -2   5 -10    2.74    0.39
  -1   5 -10    0.50    0.24
  -1   5 -10   -0.01    0.26
  -1   5 -10   -0.60    0.30
   0   5 -10    1.26    0.31
   0   5 -10    1.49    0.30
   0  -5  10    0.95    0.34
   1   5 -10   11.26    0.68
   1   5 -10    9.47    0.65
  -1  -5  10   10.99    0.74
   2   5 -10   31.76    1.60
  -2  -5  10   30.38    1.72
  -3  -5  10   23.81    1.30
  -3  -5  10   26.38    1.42
  -4  -5  10    3.78    0.41
  -1   6 -10    2.58    0.39
  -1   6 -10    3.40    0.41
   0   6 -10    0.30    0.30
   0  -6  10   -0.61    0.31
   1   6 -10    0.36    0.28
   1   6 -10    0.42    0.31
  -1  -6  10   -0.11    0.29
   2   6 -10    4.24    0.40
  -2  -6  10    3.00    0.42
  -3  -6  10    5.65    0.44
  -3  -6  10    5.62    0.51
  -1   7 -10   -0.35    0.30
   0   7 -10   -0.06    0.33
   0   7 -10   -0.64    0.29
   1   7 -10    4.32    0.44
  -1  -7  10    2.75    0.43
   2   7 -10    6.66    0.49
  -2  -7  10    4.34    0.52
  -3  -7  10   16.11    0.89
   1   8 -10    3.38    0.44
   0  -6 -11   11.67    0.70
   0   6  11   11.66    0.78
   1  -6 -11   11.98    0.66
  -1   6  11   10.23    0.77
  -2   6  11   15.19    0.81
  -2   6  11   13.71    0.92
  -1  -5 -11    2.45    0.33
  -1  -5 -11    2.27    0.40
   1   5  11    2.88    0.39
   0  -5 -11    0.36    0.23
   0  -5 -11    0.38    0.30
   0   5  11    0.43    0.26
   1  -5 -11   15.87    0.83
  -1   5  11   13.90    0.95
  -2   5  11   17.67    0.93
  -2   5  11   16.52    1.04
  -3   5  11   14.61    0.82
  -3   5  11   14.85    0.93
  -1  -4 -11   15.61    0.91
  -1  -4 -11   16.96    0.93
   1   4  11   17.03    0.97
   0  -4 -11   15.34    0.85
   0  -4 -11   15.79    0.87
   0   4  11   15.66    0.95
   1  -4 -11   32.99    1.61
  -1   4  11   30.26    1.76
  -2   4  11   15.81    1.00
  -2   4  11   16.44    0.88
  -3   4  11    0.08    0.28
  -3   4  11    0.09    0.23
  -1  -3 -11    3.47    0.37
  -1  -3 -11    3.50    0.44
   1   3  11    3.83    0.42
   0  -3 -11    0.28    0.26
   0  -3 -11    0.36    0.23
   0   3  11    0.39    0.25
   1  -3 -11   25.69    1.28
  -1   3  11   23.44    1.40
   2  -3 -11   36.97    1.83
  -2   3  11   37.50    1.83
  -2   3  11   33.28    1.98
  -3   3  11   30.81    1.56
  -3   3  11   30.17    1.70
  -4   3  11    7.58    0.50
  -4   3  11    6.93    0.60
  -4   3  11    7.26    0.59
  -2  -2 -11   16.20    0.96
  -2  -2 -11   17.34    0.95
   2   2  11   18.24    1.07
  -1  -2 -11   39.37    1.86
  -1  -2 -11   37.71    1.95
   1   2  11   39.39    2.08
   0  -2 -11   34.65    1.73
   0  -2 -11   35.25    1.65
   0   2  11   32.92    1.85
   1  -2 -11   35.23    1.62
   1  -2 -11   33.37    1.70
  -1   2  11   31.80    1.83
   2  -2 -11   20.07    1.08
  -2   2  11   18.89    1.19
  -2   2  11   21.06    1.08
  -3   2  11    0.63    0.31
  -3   2  11    0.46    0.25
  -4   2  11    0.46    0.32
  -4   2  11    0.61    0.26
  -4   2  11    0.64    0.32
  -2  -1 -11    0.14    0.27
  -2  -1 -11    0.10    0.27
   2   1  11    0.57    0.32
  -1  -1 -11    0.01    0.26
  -1  -1 -11    0.18    0.23
   1   1  11    0.42    0.24
   0  -1 -11    8.03    0.50
   0  -1 -11    7.69    0.52
   0   1  11    7.79    0.54
   1  -1 -11   32.43    1.61
   1  -1 -11   31.75    1.53
  -1   1  11   30.33    1.72
   2  -1 -11   46.90    2.56
  -2   1  11   51.38    2.75
  -2   1  11   55.60    2.56
  -3   1  11   42.74    2.08
  -3   1  11   39.07    2.23
  -4   1  11   18.86    1.03
  -4   1  11   19.20    1.03
  -4   1  11   18.46    1.15
  -2   0 -11   17.77    0.98
  -2   0 -11   18.58    0.96
   2   0  11   18.21    1.12
  -1   0 -11   53.50    2.56
  -1   0 -11   54.82    2.72
   1   0  11   56.29    2.90
   0   0 -11   56.35    2.70
   0   0 -11   53.94    2.54
   0   0  11   53.24    2.87
   1   0 -11   24.89    1.24
   1   0 -11   24.25    1.28
   1   0 -11   25.41    1.28
  -1   0  11   23.59    1.37
  -2   0  11   26.70    1.52
  -2   0  11   27.30    1.38
  -3   0  11    0.79    0.30
  -3   0  11    0.64    0.27
  -4   0  11    0.45    0.31
  -4   0  11    0.81    0.28
  -4   0  11    0.54    0.27
  -2   1 -11    0.20    0.27
  -2   1 -11    0.02    0.25
   2  -1  11   -0.02    0.33
  -1   1 -11   -0.20    0.25
  -1   1 -11   -0.18    0.23
   1  -1  11    0.72    0.28
   0   1 -11    7.66    0.51
   0   1 -11    7.45    0.54
   0  -1  11    8.57    0.58
   1   1 -11   33.42    1.68
   1   1 -11   33.24    1.61
  -1  -1  11   31.39    1.77
  -2  -1  11   55.51    2.77
  -2  -1  11   56.74    2.96
  -3  -1  11   42.79    2.15
  -3  -1  11   42.10    2.29
  -4  -1  11   18.16    0.99
  -4  -1  11   16.15    1.05
  -2   2 -11   15.65    0.81
  -2   2 -11   16.31    0.83
   2  -2  11   12.32    0.98
  -1   2 -11   38.77    1.95
  -1   2 -11   38.03    1.85
   1  -2  11   39.63    2.12
   0   2 -11   35.22    1.79
   0   2 -11   36.08    1.72
   0  -2  11   35.04    1.92
   1   2 -11   34.20    1.73
   1   2 -11   32.82    1.65
  -1  -2  11   33.46    1.82
   2   2 -11   16.63    1.07
  -2  -2  11   21.46    1.03
  -2  -2  11   21.37    1.14
  -3  -2  11    0.60    0.28
  -3  -2  11    0.43    0.24
  -4  -2  11    0.73    0.30
  -4  -2  11    0.75    0.31
  -1   3 -11    2.85    0.33
  -1   3 -11    2.78    0.37
   1  -3  11    3.41    0.48
   0   3 -11   -0.34    0.30
   0   3 -11    0.92    0.24
   0   3 -11    0.06    0.25
   0  -3  11    0.47    0.26
   1   3 -11   21.56    1.25
   1   3 -11   23.90    1.30
  -1  -3  11   27.15    1.38
   2   3 -11   33.01    1.85
  -2  -3  11   39.42    1.97
  -3  -3  11   30.26    1.67
  -3  -3  11   30.57    1.56
  -4  -3  11    7.02    0.55
  -4  -3  11    7.58    0.60
  -1   4 -11   16.42    0.86
  -1   4 -11   15.12    0.88
   1  -4  11   14.21    0.99
   0   4 -11   16.65    0.88
   0   4 -11   13.07    0.88
   0  -4  11   16.03    0.99
   1   4 -11   26.18    1.35
   1   4 -11   26.86    1.41
   2   4 -11   16.30    0.95
  -2  -4  11   17.61    1.02
  -3  -4  11    0.45    0.28
  -3  -4  11   -0.21    0.21
  -1   5 -11    1.22    0.38
  -1   5 -11    3.20    0.35
  -1   5 -11    2.23    0.35
   0   5 -11   -0.50    0.33
   0   5 -11   -0.04    0.29
   0  -5  11    0.18    0.33
   1   5 -11   13.79    0.79
   1   5 -11   10.36    0.75
   2   5 -11   18.01    1.02
  -2  -5  11   18.39    1.10
  -3  -5  11   15.63    0.95
  -3  -5  11   15.26    0.86
   0   6 -11    9.43    0.66
   0   6 -11    8.74    0.68
   0  -6  11    8.79    0.75
   1   6 -11    8.33    0.65
  -1  -6  11   11.13    0.75
   2   6 -11   15.12    0.86
  -2  -6  11   13.28    0.91
   1  -5 -12    0.26    0.24
  -1   5  12   -0.10    0.29
  -2   5  12    2.81    0.40
   0  -4 -12   14.59    0.83
   0  -4 -12   15.35    0.85
   0   4  12   14.81    0.91
   1  -4 -12   11.06    0.66
  -1   4  12   11.03    0.78
  -2   4  12    1.06    0.31
  -3   4  12    3.10    0.44
  -3   4  12    3.49    0.37
   0  -3 -12    1.49    0.28
   0  -3 -12    1.52    0.32
   0   3  12    1.76    0.31
   1  -3 -12    0.38    0.25
  -1   3  12    0.45    0.30
  -2   3  12    3.16    0.43
  -3   3  12    5.90    0.46
  -3   3  12    5.66    0.57
  -1  -2 -12    2.68    0.36
  -1  -2 -12    2.92    0.37
   1   2  12    3.23    0.40
   0  -2 -12   17.77    0.97
   0  -2 -12   18.76    0.96
   0   2  12   17.80    1.06
   1  -2 -12   28.60    1.48
  -1   2  12   28.70    1.60
   2  -2 -12    3.51    0.41
  -2   2  12    3.44    0.47
  -3   2  12    4.25    0.48
  -3   2  12    5.00    0.45
  -1  -1 -12   17.99    0.96
  -1  -1 -12   17.54    0.94
   1   1  12   17.17    1.04
   0  -1 -12    0.08    0.27
   0  -1 -12    0.32    0.24
   0   1  12    0.42    0.25
   1  -1 -12    0.18    0.25
  -1   1  12    0.14    0.26
   2  -1 -12    4.50    0.44
  -2   1  12    4.68    0.50
  -3   1  12    9.60    0.74
  -3   1  12   10.26    0.66
  -1   0 -12    6.68    0.49
  -1   0 -12    6.31    0.50
   1   0  12    6.97    0.55
   0   0 -12   16.25    0.86
   0   0 -12   15.15    0.86
   0   0  12   15.58    0.94
   1   0 -12   42.27    2.08
   1   0 -12   42.62    2.08
  -1   0  12   38.33    2.20
   2   0 -12    3.67    0.45
  -2   0  12    5.01    0.45
  -3   0  12    5.28    0.45
  -3   0  12    5.13    0.53
  -1   1 -12   16.91    0.92
  -1   1 -12   17.33    0.95
   1  -1  12   17.65    1.04
   0   1 -12    0.14    0.24
   0   1 -12    0.05    0.28
   0  -1  12    0.58    0.25
   1   1 -12   -0.25    0.31
   1   1 -12    0.22    0.25
  -1  -1  12    0.27    0.25
   2   1 -12    3.46    0.43
  -2  -1  12    5.15    0.46
  -3  -1  12   10.78    0.75
  -3  -1  12   10.84    0.66
  -1   2 -12    2.65    0.34
  -1   2 -12    2.75    0.38
   1  -2  12    2.93    0.41
   0   2 -12   18.19    0.96
   0   2 -12   17.61    0.98
   0   2 -12   18.09    0.98
   0  -2  12   18.00    1.06
   1   2 -12   29.89    1.52
   1   2 -12   29.20    1.47
  -1  -2  12   27.44    1.59
   2   2 -12    2.00    0.34
  -3  -2  12    5.32    0.50
  -3  -2  12    5.35    0.43
   0   3 -12    0.89    0.36
   0   3 -12    1.26    0.30
   0   3 -12    1.73    0.29
   0  -3  12    1.86    0.35
   1   3 -12   -0.02    0.30
  -1  -3  12    0.92    0.29
   2   3 -12    1.93    0.34
  -3  -3  12    7.10    0.55
  -3  -3  12    6.42    0.48
   0   4 -12   15.09    0.87
   0   4 -12   13.97    0.89
   0  -4  12   15.69    0.98
   1   4 -12    9.96    0.73
  -1  -4  12   12.76    0.79
   2   4 -12   -0.01    0.30
  -2  -4  12    1.71    0.32
  -3  -4  12    3.92    0.46
   1   5 -12   -0.86    0.31
  -1  -5  12    0.22    0.32
   2   5 -12    2.12    0.37
   1  -2 -13   12.90    0.77
   1  -2 -13   13.50    0.76
  -1   2  13   13.16    0.86
  -2   2  13    4.23    0.51
   1  -1 -13    5.06    0.45
   1  -1 -13    6.22    0.46
  -1   1  13    5.41    0.51
   2  -1 -13   41.16    2.08
  -2   1  13   40.48    2.23
   1   0 -13   15.40    0.85
  -1   0  13   13.84    0.89
   2   0 -13    5.30    0.50
  -2   0  13    6.29    0.54
   1   1 -13    5.40    0.49
  -1  -1  13    5.71    0.51
   2   1 -13   39.74    2.03
  -2  -1  13   39.61    2.15
   1   2 -13   12.89    0.79
  -1  -2  13   12.64    0.82
   2   2 -13    3.42    0.47
  -2  -2  13    4.51    0.46
   0   0   0    0.00    0.00
;
_shelx_hkl_checksum              38807
_olex2_submission_special_instructions 'No special instructions were received'
_publcif_funding_html
;
;
loop_
_space_group_symop_operation_xyz
'x, y, z'
'-x, y+1/2, -z'
'-x, -y, -z'
'x, -y-1/2, z'
loop_
_atom_site_label
_atom_site_type_symbol
_atom_site_fract_x
_atom_site_fract_y
_atom_site_fract_z
_atom_site_U_iso_or_equiv
_atom_site_adp_type
_atom_site_occupancy
_atom_site_site_symmetry_order
_atom_site_calc_flag
_atom_site_refinement_flags_posn
_atom_site_refinement_flags_adp
_atom_site_refinement_flags_occupancy
_atom_site_disorder_assembly
_atom_site_disorder_group
Br1 Br -0.42176(6) 0.7331(4) 0.54163(3) 0.0317(5) Uani 0.5 1 d . U . A -1
S1 S 0.47358(11) 0.750000 -0.10167(5) 0.02368(15) Uani 1 2 d S TU P . .
C2 C 0.2235(6) 0.7954(3) 0.0957(3) 0.0171(6) Uani 0.5 1 d . U . A -1
H2 H 0.278273 0.887670 0.079591 0.021 Uiso 0.5 1 calc R . . A -1
C1 C 0.2959(6) 0.6968(3) 0.0209(3) 0.0179(5) Uani 0.5 1 d . U . A -1
H1 H 0.253999 0.601698 0.032759 0.021 Uiso 0.5 1 calc R . . A -1
F1 F 0.2201(4) 0.7292(9) -0.22788(17) 0.0326(17) Uani 0.5 1 d . U . A -1
C3 C -0.159(2) 0.6289(9) 0.3433(10) 0.0266(6) Uani 0.5 1 d D U . A -1
H3 H -0.210634 0.539859 0.370115 0.032 Uiso 0.5 1 calc R . . A -1
C4 C -0.0033(7) 0.6468(5) 0.2428(4) 0.0188(7) Uani 0.5 1 d D U . A -1
H4 H 0.055192 0.566597 0.202126 0.023 Uiso 0.5 1 calc R . . A -1
C5 C 0.0665(6) 0.7771(2) 0.2016(3) 0.0138(9) Uani 0.5 1 d D U . A -1
C6 C -0.0164(7) 0.8951(5) 0.2600(4) 0.0188(7) Uani 0.5 1 d D U . A -1
H6 H 0.026229 0.985187 0.231774 0.023 Uiso 0.5 1 calc R . . A -1
C7 C -0.161(2) 0.8797(9) 0.3591(11) 0.0266(6) Uani 0.5 1 d D U . A -1
H7 H -0.214248 0.960618 0.400403 0.032 Uiso 0.5 1 calc R . . A -1
C8 C -0.2303(5) 0.7539(14) 0.4005(2) 0.0226(6) Uani 0.5 1 d D U . A -1
O1 O 0.6577(8) 0.8750(4) -0.1193(4) 0.0239(7) Uani 0.5 1 d . U . A 1
O2 O 0.5720(9) 0.8748(4) -0.0945(4) 0.0268(8) Uani 0.5 1 d . U . A 2
loop_
_atom_site_aniso_label
_atom_site_aniso_U_11
_atom_site_aniso_U_22
_atom_site_aniso_U_33
_atom_site_aniso_U_23
_atom_site_aniso_U_13
_atom_site_aniso_U_12
Br1 0.02204(17) 0.0572(15) 0.01780(14) -0.0023(2) 0.00827(10) -0.0039(2)
S1 0.0171(3) 0.0376(3) 0.0177(3) 0.000 0.0069(2) 0.000
C2 0.0156(14) 0.0149(12) 0.0209(14) 0.0016(9) 0.0041(12) 0.0003(8)
C1 0.0191(15) 0.0161(10) 0.0196(14) 0.0015(10) 0.0069(12) -0.0015(10)
F1 0.0241(8) 0.054(5) 0.0187(7) -0.0025(11) 0.0023(6) 0.0006(10)
C3 0.0218(8) 0.0313(12) 0.026(2) -0.004(2) 0.0026(11) -0.001(2)
C4 0.0211(9) 0.012(3) 0.0237(11) -0.0026(8) 0.0051(7) 0.0018(8)
C5 0.0149(12) 0.007(3) 0.0196(11) -0.0011(9) 0.0036(9) 0.0002(8)
C6 0.0211(9) 0.012(3) 0.0237(11) -0.0026(8) 0.0051(7) 0.0018(8)
C7 0.0218(8) 0.0313(12) 0.026(2) -0.004(2) 0.0026(11) -0.001(2)
C8 0.0135(10) 0.0371(16) 0.0172(11) -0.011(4) 0.0039(8) 0.005(4)
O1 0.028(2) 0.0191(12) 0.0296(18) 0.0023(11) 0.0177(13) -0.0036(13)
O2 0.036(2) 0.0174(12) 0.0334(19) 0.0026(11) 0.0216(14) -0.0043(13)
loop_
_atom_type_symbol
_atom_type_description
_atom_type_scat_dispersion_real
_atom_type_scat_dispersion_imag
_atom_type_scat_source
C C 0.0033 0.0016 'International Tables Vol C Tables 4.2.6.8 and 6.1.1.4'
H H 0.0000 0.0000 'International Tables Vol C Tables 4.2.6.8 and 6.1.1.4'
Br Br -0.2901 2.4595 'International Tables Vol C Tables 4.2.6.8 and 6.1.1.4'
F F 0.0171 0.0103 'International Tables Vol C Tables 4.2.6.8 and 6.1.1.4'
O O 0.0106 0.0060 'International Tables Vol C Tables 4.2.6.8 and 6.1.1.4'
S S 0.1246 0.1234 'International Tables Vol C Tables 4.2.6.8 and 6.1.1.4'
loop_
_geom_angle_atom_site_label_1
_geom_angle_atom_site_label_2
_geom_angle_atom_site_label_3
_geom_angle
_geom_angle_site_symmetry_1
_geom_angle_site_symmetry_3
F1 S1 C1 98.72(16) . .
O1 S1 C1 134.74(17) . .
O1 S1 C1 104.18(16) 4_575 .
O1 S1 F1 110.9(3) . .
O1 S1 F1 99.1(3) 4_575 .
O1 S1 O1 103.9(3) 4_575 .
O2 S1 O2 138.0(4) 4_575 .
C1 C2 H2 116.7 . .
C1 C2 C5 126.6(2) . .
C5 C2 H2 116.7 . .
S1 C1 H1 121.7 . .
C2 C1 S1 116.7(2) . .
C2 C1 H1 121.7 . .
C4 C3 H3 122.6 . .
C8 C3 H3 122.6 . .
C8 C3 C4 114.8(5) . .
C3 C4 H4 118.8 . .
C5 C4 C3 122.5(5) . .
C5 C4 H4 118.8 . .
C4 C5 C2 122.3(3) . .
C6 C5 C2 118.1(3) . .
C6 C5 C4 119.5(2) . .
C5 C6 H6 120.6 . .
C7 C6 C5 118.7(5) . .
C7 C6 H6 120.6 . .
C6 C7 H7 118.7 . .
C8 C7 C6 122.6(5) . .
C8 C7 H7 118.7 . .
C3 C8 Br1 115.9(8) . .
C7 C8 Br1 122.3(8) . .
C7 C8 C3 121.8(2) . .
loop_
_geom_bond_atom_site_label_1
_geom_bond_atom_site_label_2
_geom_bond_distance
_geom_bond_site_symmetry_2
Br1 C8 1.900(3) .
S1 C1 1.753(3) .
S1 F1 1.578(2) .
S1 O1 1.525(4) 4_575
S1 O1 1.525(4) .
S1 O2 1.284(4) .
S1 O2 1.284(4) 4_575
C2 H2 0.9500 .
C2 C1 1.317(4) .
C2 C5 1.472(4) .
C1 H1 0.9500 .
C3 H3 0.9500 .
C3 C4 1.417(8) .
C3 C8 1.414(9) .
C4 H4 0.9500 .
C4 C5 1.387(4) .
C5 C6 1.385(3) .
C6 H6 0.9500 .
C6 C7 1.366(9) .
C7 H7 0.9500 .
C7 C8 1.349(10) .
loop_
_geom_torsion_atom_site_label_1
_geom_torsion_atom_site_label_2
_geom_torsion_atom_site_label_3
_geom_torsion_atom_site_label_4
_geom_torsion
_geom_torsion_site_symmetry_1
_geom_torsion_site_symmetry_2
_geom_torsion_site_symmetry_3
_geom_torsion_site_symmetry_4
C2 C5 C6 C7 -179.6(6) . . . .
C1 C2 C5 C4 5.8(5) . . . .
C1 C2 C5 C6 -173.3(3) . . . .
F1 S1 C1 C2 -106.6(4) . . . .
C3 C4 C5 C2 -178.9(6) . . . .
C3 C4 C5 C6 0.2(6) . . . .
C4 C3 C8 Br1 -177.0(5) . . . .
C4 C3 C8 C7 1.6(5) . . . .
C4 C5 C6 C7 1.3(7) . . . .
C5 C2 C1 S1 178.1(2) . . . .
C5 C6 C7 C8 -1.3(12) . . . .
C6 C7 C8 Br1 178.2(6) . . . .
C6 C7 C8 C3 -0.3(8) . . . .
C8 C3 C4 C5 -1.6(10) . . . .
O1 S1 C1 C2 151.7(3) 4_575 . . .
O1 S1 C1 C2 24.8(4) . . . .
